<?xml version="1.0" encoding="UTF-8"?>

<!-- generated on 2024-05-09 13:48:49 by Eclipse SUMO netgenerate Version 1.19.0
<configuration xmlns:xsi="http://www.w3.org/2001/XMLSchema-instance" xsi:noNamespaceSchemaLocation="http://sumo.dlr.de/xsd/netgenerateConfiguration.xsd">

    <grid_network>
        <grid value="true"/>
        <grid.x-number value="3"/>
        <grid.y-number value="2"/>
    </grid_network>

    <output>
        <output-file value="Grid.net.xml"/>
    </output>

    <building_defaults>
        <default.lanenumber value="3"/>
    </building_defaults>

</configuration>
-->

<net version="1.16" junctionCornerDetail="5" limitTurnSpeed="5.50" xmlns:xsi="http://www.w3.org/2001/XMLSchema-instance" xsi:noNamespaceSchemaLocation="http://sumo.dlr.de/xsd/net_file.xsd">

    <location netOffset="0.00,0.00" convBoundary="0.00,0.00,200.00,100.00" origBoundary="0.00,0.00,200.00,100.00" projParameter="!"/>

    <edge id=":A0_0" function="internal">
        <lane id=":A0_0_0" index="0" speed="11.12" length="28.38" shape="-8.00,9.60 -6.90,1.90 -3.60,-3.60 1.90,-6.90 9.60,-8.00"/>
        <lane id=":A0_0_1" index="1" speed="10.10" length="23.22" shape="-4.80,9.60 -3.90,3.30 -1.20,-1.20 3.30,-3.90 9.60,-4.80"/>
        <lane id=":A0_0_2" index="2" speed="8.96" length="18.06" shape="-1.60,9.60 -0.90,4.70 1.20,1.20 4.70,-0.90 9.60,-1.60"/>
    </edge>
    <edge id=":A0_3" function="internal">
        <lane id=":A0_3_0" index="0" speed="3.90" length="2.58" shape="9.60,8.00 8.90,8.10 8.40,8.40 8.10,8.90 8.00,9.60"/>
        <lane id=":A0_3_1" index="1" speed="6.08" length="7.74" shape="9.60,4.80 7.50,5.10 6.00,6.00 5.10,7.50 4.80,9.60"/>
        <lane id=":A0_3_2" index="2" speed="7.66" length="12.90" shape="9.60,1.60 6.10,2.10 3.60,3.60 2.10,6.10 1.60,9.60"/>
    </edge>
    <edge id=":A1_0" function="internal">
        <lane id=":A1_0_0" index="0" speed="11.12" length="28.38" shape="9.60,108.00 1.90,106.90 -3.60,103.60 -6.90,98.10 -8.00,90.40"/>
        <lane id=":A1_0_1" index="1" speed="10.10" length="23.22" shape="9.60,104.80 3.30,103.90 -1.20,101.20 -3.90,96.70 -4.80,90.40"/>
        <lane id=":A1_0_2" index="2" speed="8.96" length="18.06" shape="9.60,101.60 4.70,100.90 1.20,98.80 -0.90,95.30 -1.60,90.40"/>
    </edge>
    <edge id=":A1_3" function="internal">
        <lane id=":A1_3_0" index="0" speed="3.90" length="2.58" shape="8.00,90.40 8.10,91.10 8.40,91.60 8.90,91.90 9.60,92.00"/>
        <lane id=":A1_3_1" index="1" speed="6.08" length="7.74" shape="4.80,90.40 5.10,92.50 6.00,94.00 7.50,94.90 9.60,95.20"/>
        <lane id=":A1_3_2" index="2" speed="7.66" length="12.90" shape="1.60,90.40 2.10,93.90 3.60,96.40 6.10,97.90 9.60,98.40"/>
    </edge>
    <edge id=":B0_0" function="internal">
        <lane id=":B0_0_0" index="0" speed="6.51" length="9.03" shape="92.00,13.60 91.65,11.15 90.60,9.40 88.85,8.35 86.40,8.00"/>
    </edge>
    <edge id=":B0_1" function="internal">
        <lane id=":B0_1_0" index="0" speed="11.36" length="29.67" shape="95.20,13.60 96.35,5.55 99.80,-0.20 105.55,-3.65 113.60,-4.80"/>
        <lane id=":B0_1_1" index="1" speed="10.36" length="24.51" shape="98.40,13.60 99.35,6.95 102.20,2.20 106.95,-0.65 113.60,-1.60"/>
    </edge>
    <edge id=":B0_3" function="internal">
        <lane id=":B0_3_0" index="0" speed="3.65" length="4.67" shape="98.40,13.60 99.20,12.40 100.00,12.00 100.80,12.40 101.60,13.60"/>
    </edge>
    <edge id=":B0_4" function="internal">
        <lane id=":B0_4_0" index="0" speed="6.51" length="9.03" shape="113.60,8.00 111.15,8.35 109.40,9.40 108.35,11.15 108.00,13.60"/>
    </edge>
    <edge id=":B0_5" function="internal">
        <lane id=":B0_5_0" index="0" speed="13.89" length="27.20" shape="113.60,8.00 86.40,8.00"/>
        <lane id=":B0_5_1" index="1" speed="13.89" length="27.20" shape="113.60,4.80 86.40,4.80"/>
        <lane id=":B0_5_2" index="2" speed="13.89" length="27.20" shape="113.60,1.60 86.40,1.60"/>
    </edge>
    <edge id=":B0_8" function="internal">
        <lane id=":B0_8_0" index="0" speed="3.65" length="1.44" shape="113.60,1.60 112.40,0.80"/>
    </edge>
    <edge id=":B0_15" function="internal">
        <lane id=":B0_15_0" index="0" speed="3.65" length="3.23" shape="112.40,0.80 112.00,0.00 112.40,-0.80 113.60,-1.60"/>
    </edge>
    <edge id=":B0_9" function="internal">
        <lane id=":B0_9_0" index="0" speed="13.89" length="27.20" shape="86.40,-8.00 113.60,-8.00"/>
        <lane id=":B0_9_1" index="1" speed="13.89" length="27.20" shape="86.40,-4.80 113.60,-4.80"/>
        <lane id=":B0_9_2" index="2" speed="13.89" length="27.20" shape="86.40,-1.60 113.60,-1.60"/>
    </edge>
    <edge id=":B0_12" function="internal">
        <lane id=":B0_12_0" index="0" speed="10.88" length="6.03" shape="86.40,-1.60 92.38,-0.89"/>
        <lane id=":B0_12_1" index="1" speed="10.36" length="5.01" shape="86.40,-1.60 91.36,-0.89"/>
    </edge>
    <edge id=":B0_14" function="internal">
        <lane id=":B0_14_0" index="0" speed="3.65" length="1.44" shape="86.40,-1.60 87.60,-0.80"/>
    </edge>
    <edge id=":B0_16" function="internal">
        <lane id=":B0_16_0" index="0" speed="10.88" length="21.12" shape="92.38,-0.89 94.45,-0.65 100.20,2.20 103.65,6.95 104.80,13.60"/>
    </edge>
    <edge id=":B0_17" function="internal">
        <lane id=":B0_17_0" index="0" speed="10.36" length="19.50" shape="91.36,-0.89 93.05,-0.65 97.80,2.20 100.65,6.95 101.60,13.60"/>
    </edge>
    <edge id=":B0_18" function="internal">
        <lane id=":B0_18_0" index="0" speed="3.65" length="3.23" shape="87.60,-0.80 88.00,0.00 87.60,0.80 86.40,1.60"/>
    </edge>
    <edge id=":B1_0" function="internal">
        <lane id=":B1_0_0" index="0" speed="13.89" length="27.20" shape="113.60,108.00 86.40,108.00"/>
        <lane id=":B1_0_1" index="1" speed="13.89" length="27.20" shape="113.60,104.80 86.40,104.80"/>
        <lane id=":B1_0_2" index="2" speed="13.89" length="27.20" shape="113.60,101.60 86.40,101.60"/>
    </edge>
    <edge id=":B1_3" function="internal">
        <lane id=":B1_3_0" index="0" speed="10.88" length="6.03" shape="113.60,101.60 107.62,100.89"/>
        <lane id=":B1_3_1" index="1" speed="10.36" length="5.01" shape="113.60,101.60 108.64,100.89"/>
    </edge>
    <edge id=":B1_5" function="internal">
        <lane id=":B1_5_0" index="0" speed="3.65" length="1.44" shape="113.60,101.60 112.40,100.80"/>
    </edge>
    <edge id=":B1_15" function="internal">
        <lane id=":B1_15_0" index="0" speed="10.88" length="21.12" shape="107.62,100.89 105.55,100.65 99.80,97.80 96.35,93.05 95.20,86.40"/>
    </edge>
    <edge id=":B1_16" function="internal">
        <lane id=":B1_16_0" index="0" speed="10.36" length="19.50" shape="108.64,100.89 106.95,100.65 102.20,97.80 99.35,93.05 98.40,86.40"/>
    </edge>
    <edge id=":B1_17" function="internal">
        <lane id=":B1_17_0" index="0" speed="3.65" length="3.23" shape="112.40,100.80 112.00,100.00 112.40,99.20 113.60,98.40"/>
    </edge>
    <edge id=":B1_6" function="internal">
        <lane id=":B1_6_0" index="0" speed="6.51" length="9.03" shape="108.00,86.40 108.35,88.85 109.40,90.60 111.15,91.65 113.60,92.00"/>
    </edge>
    <edge id=":B1_7" function="internal">
        <lane id=":B1_7_0" index="0" speed="11.36" length="29.67" shape="104.80,86.40 103.65,94.45 100.20,100.20 94.45,103.65 86.40,104.80"/>
        <lane id=":B1_7_1" index="1" speed="10.36" length="24.51" shape="101.60,86.40 100.65,93.05 97.80,97.80 93.05,100.65 86.40,101.60"/>
    </edge>
    <edge id=":B1_9" function="internal">
        <lane id=":B1_9_0" index="0" speed="3.65" length="4.67" shape="101.60,86.40 100.80,87.60 100.00,88.00 99.20,87.60 98.40,86.40"/>
    </edge>
    <edge id=":B1_10" function="internal">
        <lane id=":B1_10_0" index="0" speed="6.51" length="9.03" shape="86.40,92.00 88.85,91.65 90.60,90.60 91.65,88.85 92.00,86.40"/>
    </edge>
    <edge id=":B1_11" function="internal">
        <lane id=":B1_11_0" index="0" speed="13.89" length="27.20" shape="86.40,92.00 113.60,92.00"/>
        <lane id=":B1_11_1" index="1" speed="13.89" length="27.20" shape="86.40,95.20 113.60,95.20"/>
        <lane id=":B1_11_2" index="2" speed="13.89" length="27.20" shape="86.40,98.40 113.60,98.40"/>
    </edge>
    <edge id=":B1_14" function="internal">
        <lane id=":B1_14_0" index="0" speed="3.65" length="1.44" shape="86.40,98.40 87.60,99.20"/>
    </edge>
    <edge id=":B1_18" function="internal">
        <lane id=":B1_18_0" index="0" speed="3.65" length="3.23" shape="87.60,99.20 88.00,100.00 87.60,100.80 86.40,101.60"/>
    </edge>
    <edge id=":C0_0" function="internal">
        <lane id=":C0_0_0" index="0" speed="3.90" length="2.58" shape="192.00,9.60 191.90,8.90 191.60,8.40 191.10,8.10 190.40,8.00"/>
        <lane id=":C0_0_1" index="1" speed="6.08" length="7.74" shape="195.20,9.60 194.90,7.50 194.00,6.00 192.50,5.10 190.40,4.80"/>
        <lane id=":C0_0_2" index="2" speed="7.66" length="12.90" shape="198.40,9.60 197.90,6.10 196.40,3.60 193.90,2.10 190.40,1.60"/>
    </edge>
    <edge id=":C0_3" function="internal">
        <lane id=":C0_3_0" index="0" speed="11.12" length="28.38" shape="190.40,-8.00 198.10,-6.90 203.60,-3.60 206.90,1.90 208.00,9.60"/>
        <lane id=":C0_3_1" index="1" speed="10.10" length="23.22" shape="190.40,-4.80 196.70,-3.90 201.20,-1.20 203.90,3.30 204.80,9.60"/>
        <lane id=":C0_3_2" index="2" speed="8.96" length="18.06" shape="190.40,-1.60 195.30,-0.90 198.80,1.20 200.90,4.70 201.60,9.60"/>
    </edge>
    <edge id=":C1_0" function="internal">
        <lane id=":C1_0_0" index="0" speed="11.12" length="28.38" shape="208.00,90.40 206.90,98.10 203.60,103.60 198.10,106.90 190.40,108.00"/>
        <lane id=":C1_0_1" index="1" speed="10.10" length="23.22" shape="204.80,90.40 203.90,96.70 201.20,101.20 196.70,103.90 190.40,104.80"/>
        <lane id=":C1_0_2" index="2" speed="8.96" length="18.06" shape="201.60,90.40 200.90,95.30 198.80,98.80 195.30,100.90 190.40,101.60"/>
    </edge>
    <edge id=":C1_3" function="internal">
        <lane id=":C1_3_0" index="0" speed="3.90" length="2.58" shape="190.40,92.00 191.10,91.90 191.60,91.60 191.90,91.10 192.00,90.40"/>
        <lane id=":C1_3_1" index="1" speed="6.08" length="7.74" shape="190.40,95.20 192.50,94.90 194.00,94.00 194.90,92.50 195.20,90.40"/>
        <lane id=":C1_3_2" index="2" speed="7.66" length="12.90" shape="190.40,98.40 193.90,97.90 196.40,96.40 197.90,93.90 198.40,90.40"/>
    </edge>

    <edge id="A0A1" from="A0" to="A1" priority="-1">
        <lane id="A0A1_0" index="0" speed="13.89" length="80.80" shape="8.00,9.60 8.00,90.40"/>
        <lane id="A0A1_1" index="1" speed="13.89" length="80.80" shape="4.80,9.60 4.80,90.40"/>
        <lane id="A0A1_2" index="2" speed="13.89" length="80.80" shape="1.60,9.60 1.60,90.40"/>
    </edge>
    <edge id="A0B0" from="A0" to="B0" priority="-1">
        <lane id="A0B0_0" index="0" speed="13.89" length="76.80" shape="9.60,-8.00 86.40,-8.00"/>
        <lane id="A0B0_1" index="1" speed="13.89" length="76.80" shape="9.60,-4.80 86.40,-4.80"/>
        <lane id="A0B0_2" index="2" speed="13.89" length="76.80" shape="9.60,-1.60 86.40,-1.60"/>
    </edge>
    <edge id="A1A0" from="A1" to="A0" priority="-1">
        <lane id="A1A0_0" index="0" speed="13.89" length="80.80" shape="-8.00,90.40 -8.00,9.60"/>
        <lane id="A1A0_1" index="1" speed="13.89" length="80.80" shape="-4.80,90.40 -4.80,9.60"/>
        <lane id="A1A0_2" index="2" speed="13.89" length="80.80" shape="-1.60,90.40 -1.60,9.60"/>
    </edge>
    <edge id="A1B1" from="A1" to="B1" priority="-1">
        <lane id="A1B1_0" index="0" speed="13.89" length="76.80" shape="9.60,92.00 86.40,92.00"/>
        <lane id="A1B1_1" index="1" speed="13.89" length="76.80" shape="9.60,95.20 86.40,95.20"/>
        <lane id="A1B1_2" index="2" speed="13.89" length="76.80" shape="9.60,98.40 86.40,98.40"/>
    </edge>
    <edge id="B0A0" from="B0" to="A0" priority="-1">
        <lane id="B0A0_0" index="0" speed="13.89" length="76.80" shape="86.40,8.00 9.60,8.00"/>
        <lane id="B0A0_1" index="1" speed="13.89" length="76.80" shape="86.40,4.80 9.60,4.80"/>
        <lane id="B0A0_2" index="2" speed="13.89" length="76.80" shape="86.40,1.60 9.60,1.60"/>
    </edge>
    <edge id="B0B1" from="B0" to="B1" priority="-1">
        <lane id="B0B1_0" index="0" speed="13.89" length="72.80" shape="108.00,13.60 108.00,86.40"/>
        <lane id="B0B1_1" index="1" speed="13.89" length="72.80" shape="104.80,13.60 104.80,86.40"/>
        <lane id="B0B1_2" index="2" speed="13.89" length="72.80" shape="101.60,13.60 101.60,86.40"/>
    </edge>
    <edge id="B0C0" from="B0" to="C0" priority="-1">
        <lane id="B0C0_0" index="0" speed="13.89" length="76.80" shape="113.60,-8.00 190.40,-8.00"/>
        <lane id="B0C0_1" index="1" speed="13.89" length="76.80" shape="113.60,-4.80 190.40,-4.80"/>
        <lane id="B0C0_2" index="2" speed="13.89" length="76.80" shape="113.60,-1.60 190.40,-1.60"/>
    </edge>
    <edge id="B1A1" from="B1" to="A1" priority="-1">
        <lane id="B1A1_0" index="0" speed="13.89" length="76.80" shape="86.40,108.00 9.60,108.00"/>
        <lane id="B1A1_1" index="1" speed="13.89" length="76.80" shape="86.40,104.80 9.60,104.80"/>
        <lane id="B1A1_2" index="2" speed="13.89" length="76.80" shape="86.40,101.60 9.60,101.60"/>
    </edge>
    <edge id="B1B0" from="B1" to="B0" priority="-1">
        <lane id="B1B0_0" index="0" speed="13.89" length="72.80" shape="92.00,86.40 92.00,13.60"/>
        <lane id="B1B0_1" index="1" speed="13.89" length="72.80" shape="95.20,86.40 95.20,13.60"/>
        <lane id="B1B0_2" index="2" speed="13.89" length="72.80" shape="98.40,86.40 98.40,13.60"/>
    </edge>
    <edge id="B1C1" from="B1" to="C1" priority="-1">
        <lane id="B1C1_0" index="0" speed="13.89" length="76.80" shape="113.60,92.00 190.40,92.00"/>
        <lane id="B1C1_1" index="1" speed="13.89" length="76.80" shape="113.60,95.20 190.40,95.20"/>
        <lane id="B1C1_2" index="2" speed="13.89" length="76.80" shape="113.60,98.40 190.40,98.40"/>
    </edge>
    <edge id="C0B0" from="C0" to="B0" priority="-1">
        <lane id="C0B0_0" index="0" speed="13.89" length="76.80" shape="190.40,8.00 113.60,8.00"/>
        <lane id="C0B0_1" index="1" speed="13.89" length="76.80" shape="190.40,4.80 113.60,4.80"/>
        <lane id="C0B0_2" index="2" speed="13.89" length="76.80" shape="190.40,1.60 113.60,1.60"/>
    </edge>
    <edge id="C0C1" from="C0" to="C1" priority="-1">
        <lane id="C0C1_0" index="0" speed="13.89" length="80.80" shape="208.00,9.60 208.00,90.40"/>
        <lane id="C0C1_1" index="1" speed="13.89" length="80.80" shape="204.80,9.60 204.80,90.40"/>
        <lane id="C0C1_2" index="2" speed="13.89" length="80.80" shape="201.60,9.60 201.60,90.40"/>
    </edge>
    <edge id="C1B1" from="C1" to="B1" priority="-1">
        <lane id="C1B1_0" index="0" speed="13.89" length="76.80" shape="190.40,108.00 113.60,108.00"/>
        <lane id="C1B1_1" index="1" speed="13.89" length="76.80" shape="190.40,104.80 113.60,104.80"/>
        <lane id="C1B1_2" index="2" speed="13.89" length="76.80" shape="190.40,101.60 113.60,101.60"/>
    </edge>
    <edge id="C1C0" from="C1" to="C0" priority="-1">
        <lane id="C1C0_0" index="0" speed="13.89" length="80.80" shape="192.00,90.40 192.00,9.60"/>
        <lane id="C1C0_1" index="1" speed="13.89" length="80.80" shape="195.20,90.40 195.20,9.60"/>
        <lane id="C1C0_2" index="2" speed="13.89" length="80.80" shape="198.40,90.40 198.40,9.60"/>
    </edge>

    <junction id="A0" type="priority" x="0.00" y="0.00" incLanes="A1A0_0 A1A0_1 A1A0_2 B0A0_0 B0A0_1 B0A0_2" intLanes=":A0_0_0 :A0_0_1 :A0_0_2 :A0_3_0 :A0_3_1 :A0_3_2" shape="-9.60,9.60 9.60,9.60 9.60,-9.60 3.73,-9.07 -1.07,-7.47 -4.80,-4.80 -7.47,-1.07 -9.07,3.73">
        <request index="0" response="000000" foes="000000" cont="0"/>
        <request index="1" response="000000" foes="000000" cont="0"/>
        <request index="2" response="000000" foes="000000" cont="0"/>
        <request index="3" response="000000" foes="000000" cont="0"/>
        <request index="4" response="000000" foes="000000" cont="0"/>
        <request index="5" response="000000" foes="000000" cont="0"/>
    </junction>
    <junction id="A1" type="priority" x="0.00" y="100.00" incLanes="B1A1_0 B1A1_1 B1A1_2 A0A1_0 A0A1_1 A0A1_2" intLanes=":A1_0_0 :A1_0_1 :A1_0_2 :A1_3_0 :A1_3_1 :A1_3_2" shape="9.60,109.60 9.60,90.40 -9.60,90.40 -9.07,96.27 -7.47,101.07 -4.80,104.80 -1.07,107.47 3.73,109.07">
        <request index="0" response="000000" foes="000000" cont="0"/>
        <request index="1" response="000000" foes="000000" cont="0"/>
        <request index="2" response="000000" foes="000000" cont="0"/>
        <request index="3" response="000000" foes="000000" cont="0"/>
        <request index="4" response="000000" foes="000000" cont="0"/>
        <request index="5" response="000000" foes="000000" cont="0"/>
    </junction>
    <junction id="B0" type="priority" x="100.00" y="0.00" incLanes="B1B0_0 B1B0_1 B1B0_2 C0B0_0 C0B0_1 C0B0_2 A0B0_0 A0B0_1 A0B0_2" intLanes=":B0_0_0 :B0_1_0 :B0_1_1 :B0_3_0 :B0_4_0 :B0_5_0 :B0_5_1 :B0_5_2 :B0_15_0 :B0_9_0 :B0_9_1 :B0_9_2 :B0_16_0 :B0_17_0 :B0_18_0" shape="90.40,13.60 109.60,13.60 110.04,11.38 110.60,10.60 111.38,10.04 112.38,9.71 113.60,9.60 113.60,-9.60 86.40,-9.60 86.40,9.60 88.62,10.04 89.40,10.60 89.96,11.38 90.29,12.38">
        <request index="0"  response="000000011100000" foes="000000011100000" cont="0"/>
        <request index="1"  response="011111011100000" foes="011111111100000" cont="0"/>
        <request index="2"  response="011111011100000" foes="011111111100000" cont="0"/>
        <request index="3"  response="011000000000000" foes="011000000000000" cont="0"/>
        <request index="4"  response="000000000000000" foes="000000000000000" cont="0"/>
        <request index="5"  response="000000000000000" foes="111000000000111" cont="0"/>
        <request index="6"  response="000000000000000" foes="111000000000111" cont="0"/>
        <request index="7"  response="000000000000000" foes="111000000000111" cont="0"/>
        <request index="8"  response="000111000000110" foes="000111000000110" cont="1"/>
        <request index="9"  response="000000000000000" foes="000000100000110" cont="0"/>
        <request index="10" response="000000000000000" foes="000000100000110" cont="0"/>
        <request index="11" response="000000000000000" foes="000000100000110" cont="0"/>
        <request index="12" response="000000011100000" foes="000000011101110" cont="1"/>
        <request index="13" response="000000011100000" foes="000000011101110" cont="1"/>
        <request index="14" response="000000011100000" foes="000000011100000" cont="1"/>
    </junction>
    <junction id="B1" type="priority" x="100.00" y="100.00" incLanes="C1B1_0 C1B1_1 C1B1_2 B0B1_0 B0B1_1 B0B1_2 A1B1_0 A1B1_1 A1B1_2" intLanes=":B1_0_0 :B1_0_1 :B1_0_2 :B1_15_0 :B1_16_0 :B1_17_0 :B1_6_0 :B1_7_0 :B1_7_1 :B1_9_0 :B1_10_0 :B1_11_0 :B1_11_1 :B1_11_2 :B1_18_0" shape="113.60,109.60 113.60,90.40 111.38,89.96 110.60,89.40 110.04,88.62 109.71,87.62 109.60,86.40 90.40,86.40 89.96,88.62 89.40,89.40 88.62,89.96 87.62,90.29 86.40,90.40 86.40,109.60">
        <request index="0"  response="000000000000000" foes="100000110000000" cont="0"/>
        <request index="1"  response="000000000000000" foes="100000110000000" cont="0"/>
        <request index="2"  response="000000000000000" foes="100000110000000" cont="0"/>
        <request index="3"  response="011100000000000" foes="011101110000000" cont="1"/>
        <request index="4"  response="011100000000000" foes="011101110000000" cont="1"/>
        <request index="5"  response="011100000000000" foes="011100000000000" cont="1"/>
        <request index="6"  response="011100000000000" foes="011100000000000" cont="0"/>
        <request index="7"  response="011100000011111" foes="111100000011111" cont="0"/>
        <request index="8"  response="011100000011111" foes="111100000011111" cont="0"/>
        <request index="9"  response="000000000011000" foes="000000000011000" cont="0"/>
        <request index="10" response="000000000000000" foes="000000000000000" cont="0"/>
        <request index="11" response="000000000000000" foes="000000111111000" cont="0"/>
        <request index="12" response="000000000000000" foes="000000111111000" cont="0"/>
        <request index="13" response="000000000000000" foes="000000111111000" cont="0"/>
        <request index="14" response="000000110000111" foes="000000110000111" cont="1"/>
    </junction>
    <junction id="C0" type="priority" x="200.00" y="0.00" incLanes="C1C0_0 C1C0_1 C1C0_2 B0C0_0 B0C0_1 B0C0_2" intLanes=":C0_0_0 :C0_0_1 :C0_0_2 :C0_3_0 :C0_3_1 :C0_3_2" shape="190.40,9.60 209.60,9.60 209.07,3.73 207.47,-1.07 204.80,-4.80 201.07,-7.47 196.27,-9.07 190.40,-9.60">
        <request index="0" response="000000" foes="000000" cont="0"/>
        <request index="1" response="000000" foes="000000" cont="0"/>
        <request index="2" response="000000" foes="000000" cont="0"/>
        <request index="3" response="000000" foes="000000" cont="0"/>
        <request index="4" response="000000" foes="000000" cont="0"/>
        <request index="5" response="000000" foes="000000" cont="0"/>
    </junction>
    <junction id="C1" type="priority" x="200.00" y="100.00" incLanes="C0C1_0 C0C1_1 C0C1_2 B1C1_0 B1C1_1 B1C1_2" intLanes=":C1_0_0 :C1_0_1 :C1_0_2 :C1_3_0 :C1_3_1 :C1_3_2" shape="209.60,90.40 190.40,90.40 190.40,109.60 196.27,109.07 201.07,107.47 204.80,104.80 207.47,101.07 209.07,96.27">
        <request index="0" response="000000" foes="000000" cont="0"/>
        <request index="1" response="000000" foes="000000" cont="0"/>
        <request index="2" response="000000" foes="000000" cont="0"/>
        <request index="3" response="000000" foes="000000" cont="0"/>
        <request index="4" response="000000" foes="000000" cont="0"/>
        <request index="5" response="000000" foes="000000" cont="0"/>
    </junction>

    <junction id=":B0_15_0" type="internal" x="112.40" y="0.80" incLanes=":B0_8_0 A0B0_0 A0B0_1 A0B0_2 B1B0_1 B1B0_2" intLanes=":B0_1_0 :B0_1_1 :B0_9_0 :B0_9_1 :B0_9_2"/>
    <junction id=":B0_16_0" type="internal" x="92.38" y="-0.89" incLanes=":B0_12_0 C0B0_0 C0B0_1 C0B0_2" intLanes=":B0_1_0 :B0_1_1 :B0_3_0 :B0_4_0 :B0_5_0 :B0_5_1 :B0_5_2"/>
    <junction id=":B0_17_0" type="internal" x="91.36" y="-0.89" incLanes=":B0_12_1 C0B0_0 C0B0_1 C0B0_2" intLanes=":B0_1_0 :B0_1_1 :B0_3_0 :B0_4_0 :B0_5_0 :B0_5_1 :B0_5_2"/>
    <junction id=":B0_18_0" type="internal" x="87.60" y="-0.80" incLanes=":B0_14_0 B1B0_0 C0B0_0 C0B0_1 C0B0_2" intLanes=":B0_0_0 :B0_5_0 :B0_5_1 :B0_5_2"/>
    <junction id=":B1_15_0" type="internal" x="107.62" y="100.89" incLanes=":B1_3_0 A1B1_0 A1B1_1 A1B1_2" intLanes=":B1_7_0 :B1_7_1 :B1_9_0 :B1_10_0 :B1_11_0 :B1_11_1 :B1_11_2"/>
    <junction id=":B1_16_0" type="internal" x="108.64" y="100.89" incLanes=":B1_3_1 A1B1_0 A1B1_1 A1B1_2" intLanes=":B1_7_0 :B1_7_1 :B1_9_0 :B1_10_0 :B1_11_0 :B1_11_1 :B1_11_2"/>
    <junction id=":B1_17_0" type="internal" x="112.40" y="100.80" incLanes=":B1_5_0 A1B1_0 A1B1_1 A1B1_2 B0B1_0" intLanes=":B1_6_0 :B1_11_0 :B1_11_1 :B1_11_2"/>
    <junction id=":B1_18_0" type="internal" x="87.60" y="99.20" incLanes=":B1_14_0 B0B1_1 B0B1_2 C1B1_0 C1B1_1 C1B1_2" intLanes=":B1_0_0 :B1_0_1 :B1_0_2 :B1_7_0 :B1_7_1"/>

    <connection from="A0A1" to="A1B1" fromLane="0" toLane="0" via=":A1_3_0" dir="r" state="M"/>
    <connection from="A0A1" to="A1B1" fromLane="1" toLane="1" via=":A1_3_1" dir="r" state="M"/>
    <connection from="A0A1" to="A1B1" fromLane="2" toLane="2" via=":A1_3_2" dir="r" state="M"/>
    <connection from="A0B0" to="B0C0" fromLane="0" toLane="0" via=":B0_9_0" dir="s" state="M"/>
    <connection from="A0B0" to="B0C0" fromLane="1" toLane="1" via=":B0_9_1" dir="s" state="M"/>
    <connection from="A0B0" to="B0C0" fromLane="2" toLane="2" via=":B0_9_2" dir="s" state="M"/>
    <connection from="A0B0" to="B0B1" fromLane="2" toLane="1" via=":B0_12_0" dir="l" state="m"/>
    <connection from="A0B0" to="B0B1" fromLane="2" toLane="2" via=":B0_12_1" dir="l" state="m"/>
    <connection from="A0B0" to="B0A0" fromLane="2" toLane="2" via=":B0_14_0" dir="t" state="m"/>
    <connection from="A1A0" to="A0B0" fromLane="0" toLane="0" via=":A0_0_0" dir="l" state="M"/>
    <connection from="A1A0" to="A0B0" fromLane="1" toLane="1" via=":A0_0_1" dir="l" state="M"/>
    <connection from="A1A0" to="A0B0" fromLane="2" toLane="2" via=":A0_0_2" dir="l" state="M"/>
    <connection from="A1B1" to="B1B0" fromLane="0" toLane="0" via=":B1_10_0" dir="r" state="M"/>
    <connection from="A1B1" to="B1C1" fromLane="0" toLane="0" via=":B1_11_0" dir="s" state="M"/>
    <connection from="A1B1" to="B1C1" fromLane="1" toLane="1" via=":B1_11_1" dir="s" state="M"/>
    <connection from="A1B1" to="B1C1" fromLane="2" toLane="2" via=":B1_11_2" dir="s" state="M"/>
    <connection from="A1B1" to="B1A1" fromLane="2" toLane="2" via=":B1_14_0" dir="t" state="m"/>
    <connection from="B0A0" to="A0A1" fromLane="0" toLane="0" via=":A0_3_0" dir="r" state="M"/>
    <connection from="B0A0" to="A0A1" fromLane="1" toLane="1" via=":A0_3_1" dir="r" state="M"/>
    <connection from="B0A0" to="A0A1" fromLane="2" toLane="2" via=":A0_3_2" dir="r" state="M"/>
    <connection from="B0B1" to="B1C1" fromLane="0" toLane="0" via=":B1_6_0" dir="r" state="m"/>
    <connection from="B0B1" to="B1A1" fromLane="1" toLane="1" via=":B1_7_0" dir="l" state="m"/>
    <connection from="B0B1" to="B1A1" fromLane="2" toLane="2" via=":B1_7_1" dir="l" state="m"/>
    <connection from="B0B1" to="B1B0" fromLane="2" toLane="2" via=":B1_9_0" dir="t" state="m"/>
    <connection from="B0C0" to="C0C1" fromLane="0" toLane="0" via=":C0_3_0" dir="l" state="M"/>
    <connection from="B0C0" to="C0C1" fromLane="1" toLane="1" via=":C0_3_1" dir="l" state="M"/>
    <connection from="B0C0" to="C0C1" fromLane="2" toLane="2" via=":C0_3_2" dir="l" state="M"/>
    <connection from="B1A1" to="A1A0" fromLane="0" toLane="0" via=":A1_0_0" dir="l" state="M"/>
    <connection from="B1A1" to="A1A0" fromLane="1" toLane="1" via=":A1_0_1" dir="l" state="M"/>
    <connection from="B1A1" to="A1A0" fromLane="2" toLane="2" via=":A1_0_2" dir="l" state="M"/>
    <connection from="B1B0" to="B0A0" fromLane="0" toLane="0" via=":B0_0_0" dir="r" state="m"/>
    <connection from="B1B0" to="B0C0" fromLane="1" toLane="1" via=":B0_1_0" dir="l" state="m"/>
    <connection from="B1B0" to="B0C0" fromLane="2" toLane="2" via=":B0_1_1" dir="l" state="m"/>
    <connection from="B1B0" to="B0B1" fromLane="2" toLane="2" via=":B0_3_0" dir="t" state="m"/>
    <connection from="B1C1" to="C1C0" fromLane="0" toLane="0" via=":C1_3_0" dir="r" state="M"/>
    <connection from="B1C1" to="C1C0" fromLane="1" toLane="1" via=":C1_3_1" dir="r" state="M"/>
    <connection from="B1C1" to="C1C0" fromLane="2" toLane="2" via=":C1_3_2" dir="r" state="M"/>
    <connection from="C0B0" to="B0B1" fromLane="0" toLane="0" via=":B0_4_0" dir="r" state="M"/>
    <connection from="C0B0" to="B0A0" fromLane="0" toLane="0" via=":B0_5_0" dir="s" state="M"/>
    <connection from="C0B0" to="B0A0" fromLane="1" toLane="1" via=":B0_5_1" dir="s" state="M"/>
    <connection from="C0B0" to="B0A0" fromLane="2" toLane="2" via=":B0_5_2" dir="s" state="M"/>
    <connection from="C0B0" to="B0C0" fromLane="2" toLane="2" via=":B0_8_0" dir="t" state="m"/>
    <connection from="C0C1" to="C1B1" fromLane="0" toLane="0" via=":C1_0_0" dir="l" state="M"/>
    <connection from="C0C1" to="C1B1" fromLane="1" toLane="1" via=":C1_0_1" dir="l" state="M"/>
    <connection from="C0C1" to="C1B1" fromLane="2" toLane="2" via=":C1_0_2" dir="l" state="M"/>
    <connection from="C1B1" to="B1A1" fromLane="0" toLane="0" via=":B1_0_0" dir="s" state="M"/>
    <connection from="C1B1" to="B1A1" fromLane="1" toLane="1" via=":B1_0_1" dir="s" state="M"/>
    <connection from="C1B1" to="B1A1" fromLane="2" toLane="2" via=":B1_0_2" dir="s" state="M"/>
    <connection from="C1B1" to="B1B0" fromLane="2" toLane="1" via=":B1_3_0" dir="l" state="m"/>
    <connection from="C1B1" to="B1B0" fromLane="2" toLane="2" via=":B1_3_1" dir="l" state="m"/>
    <connection from="C1B1" to="B1C1" fromLane="2" toLane="2" via=":B1_5_0" dir="t" state="m"/>
    <connection from="C1C0" to="C0B0" fromLane="0" toLane="0" via=":C0_0_0" dir="r" state="M"/>
    <connection from="C1C0" to="C0B0" fromLane="1" toLane="1" via=":C0_0_1" dir="r" state="M"/>
    <connection from="C1C0" to="C0B0" fromLane="2" toLane="2" via=":C0_0_2" dir="r" state="M"/>

    <connection from=":A0_0" to="A0B0" fromLane="0" toLane="0" dir="l" state="M"/>
    <connection from=":A0_0" to="A0B0" fromLane="1" toLane="1" dir="l" state="M"/>
    <connection from=":A0_0" to="A0B0" fromLane="2" toLane="2" dir="l" state="M"/>
    <connection from=":A0_3" to="A0A1" fromLane="0" toLane="0" dir="r" state="M"/>
    <connection from=":A0_3" to="A0A1" fromLane="1" toLane="1" dir="r" state="M"/>
    <connection from=":A0_3" to="A0A1" fromLane="2" toLane="2" dir="r" state="M"/>
    <connection from=":A1_0" to="A1A0" fromLane="0" toLane="0" dir="l" state="M"/>
    <connection from=":A1_0" to="A1A0" fromLane="1" toLane="1" dir="l" state="M"/>
    <connection from=":A1_0" to="A1A0" fromLane="2" toLane="2" dir="l" state="M"/>
    <connection from=":A1_3" to="A1B1" fromLane="0" toLane="0" dir="r" state="M"/>
    <connection from=":A1_3" to="A1B1" fromLane="1" toLane="1" dir="r" state="M"/>
    <connection from=":A1_3" to="A1B1" fromLane="2" toLane="2" dir="r" state="M"/>
    <connection from=":B0_0" to="B0A0" fromLane="0" toLane="0" dir="r" state="M"/>
    <connection from=":B0_1" to="B0C0" fromLane="0" toLane="1" dir="l" state="M"/>
    <connection from=":B0_1" to="B0C0" fromLane="1" toLane="2" dir="l" state="M"/>
    <connection from=":B0_3" to="B0B1" fromLane="0" toLane="2" dir="t" state="M"/>
    <connection from=":B0_4" to="B0B1" fromLane="0" toLane="0" dir="r" state="M"/>