<?xml version="1.0" encoding="UTF-8"?>

<!-- generated on 2024-05-08 14:18:26 by Eclipse SUMO netgenerate Version 1.19.0
<configuration xmlns:xsi="http://www.w3.org/2001/XMLSchema-instance" xsi:noNamespaceSchemaLocation="http://sumo.dlr.de/xsd/netgenerateConfiguration.xsd">

    <spider_network>
        <spider value="true"/>
        <spider.arm-number value="3"/>
        <spider.space-radius value="300"/>
    </spider_network>

    <output>
        <output-file value="MySUMOSpiderFile.net.xml"/>
    </output>

</configuration>
-->

<net version="1.16" junctionCornerDetail="5" limitTurnSpeed="5.50" xmlns:xsi="http://www.w3.org/2001/XMLSchema-instance" xsi:noNamespaceSchemaLocation="http://sumo.dlr.de/xsd/net_file.xsd">

    <location netOffset="750.00,1299.04" convBoundary="0.00,0.00,2250.00,2598.08" origBoundary="-750.00,-1299.04,1500.00,1299.04" projParameter="!"/>

    <edge id=":A1_0" function="internal">
        <lane id=":A1_0_0" index="0" speed="6.75" length="5.88" shape="754.16,1300.64 752.64,1300.81 751.33,1301.34 750.22,1302.21 749.31,1303.44"/>
    </edge>
    <edge id=":A1_1" function="internal">
        <lane id=":A1_1_0" index="0" speed="8.24" length="9.07" shape="754.16,1300.64 752.07,1300.26 749.87,1299.26 747.91,1297.85 746.54,1296.24"/>
    </edge>
    <edge id=":A1_2" function="internal">
        <lane id=":A1_2_0" index="0" speed="3.65" length="4.67" shape="754.16,1300.64 752.96,1299.84 752.56,1299.04 752.96,1298.24 754.16,1297.44"/>
    </edge>
    <edge id=":A1_3" function="internal">
        <lane id=":A1_3_0" index="0" speed="6.75" length="5.88" shape="749.31,1294.64 750.22,1295.86 751.33,1296.74 752.64,1297.26 754.16,1297.44"/>
    </edge>
    <edge id=":A1_4" function="internal">
        <lane id=":A1_4_0" index="0" speed="8.24" length="9.07" shape="749.31,1294.64 750.02,1296.63 750.26,1299.04 750.02,1301.44 749.31,1303.44"/>
    </edge>
    <edge id=":A1_5" function="internal">
        <lane id=":A1_5_0" index="0" speed="3.65" length="4.67" shape="749.31,1294.64 749.21,1296.08 748.72,1296.82 747.83,1296.88 746.54,1296.24"/>
    </edge>
    <edge id=":A1_6" function="internal">
        <lane id=":A1_6_0" index="0" speed="6.75" length="5.88" shape="746.54,1301.84 747.14,1300.44 747.34,1299.04 747.14,1297.64 746.54,1296.24"/>
    </edge>
    <edge id=":A1_7" function="internal">
        <lane id=":A1_7_0" index="0" speed="8.24" length="9.07" shape="746.54,1301.84 747.91,1300.22 749.87,1298.81 752.07,1297.82 754.16,1297.44"/>
    </edge>
    <edge id=":A1_8" function="internal">
        <lane id=":A1_8_0" index="0" speed="3.65" length="4.67" shape="746.54,1301.84 747.83,1301.20 748.72,1301.25 749.21,1302.00 749.31,1303.44"/>
    </edge>
    <edge id=":B1_0" function="internal">
        <lane id=":B1_0_0" index="0" speed="13.89" length="19.62" shape="1054.86,1300.64 1050.57,1301.50 1045.67,1303.58 1040.91,1306.13 1036.99,1308.40"/>
    </edge>
    <edge id=":B1_1" function="internal">
        <lane id=":B1_1_0" index="0" speed="13.89" length="20.80" shape="1054.86,1300.64 1034.06,1300.64"/>
    </edge>
    <edge id=":B1_2" function="internal">
        <lane id=":B1_2_0" index="0" speed="13.89" length="3.59" shape="1054.86,1300.64 1051.34,1299.92"/>
    </edge>
    <edge id=":B1_3" function="internal">
        <lane id=":B1_3_0" index="0" speed="3.65" length="1.44" shape="1054.86,1300.64 1053.66,1299.84"/>
    </edge>
    <edge id=":B1_16" function="internal">
        <lane id=":B1_16_0" index="0" speed="13.89" length="17.66" shape="1051.34,1299.92 1050.32,1299.71 1044.87,1297.48 1039.56,1294.79 1035.39,1292.45"/>
    </edge>
    <edge id=":B1_17" function="internal">
        <lane id=":B1_17_0" index="0" speed="3.65" length="3.23" shape="1053.66,1299.84 1053.26,1299.04 1053.66,1298.24 1054.86,1297.44"/>
    </edge>
    <edge id=":B1_4" function="internal">
        <lane id=":B1_4_0" index="0" speed="13.89" length="19.62" shape="1036.99,1289.68 1040.91,1291.95 1045.67,1294.50 1050.57,1296.58 1054.86,1297.44"/>
    </edge>
    <edge id=":B1_5" function="internal">
        <lane id=":B1_5_0" index="0" speed="9.00" length="25.54" shape="1036.99,1289.68 1043.07,1294.36 1045.10,1299.04 1043.07,1303.72 1036.99,1308.40"/>
    </edge>
    <edge id=":B1_6" function="internal">
        <lane id=":B1_6_0" index="0" speed="6.36" length="15.42" shape="1036.99,1289.68 1039.72,1292.72 1039.94,1296.34 1037.94,1299.37 1034.06,1300.64"/>
    </edge>
    <edge id=":B1_7" function="internal">
        <lane id=":B1_7_0" index="0" speed="3.65" length="4.67" shape="1036.99,1289.68 1037.63,1290.97 1037.58,1291.87 1036.83,1292.36 1035.39,1292.45"/>
    </edge>
    <edge id=":B1_8" function="internal">
        <lane id=":B1_8_0" index="0" speed="5.53" length="11.20" shape="1034.06,1297.44 1037.88,1297.13 1039.38,1296.19 1038.55,1294.63 1035.39,1292.45"/>
    </edge>
    <edge id=":B1_9" function="internal">
        <lane id=":B1_9_0" index="0" speed="13.89" length="20.80" shape="1034.06,1297.44 1054.86,1297.44"/>
    </edge>
    <edge id=":B1_10" function="internal">
        <lane id=":B1_10_0" index="0" speed="6.36" length="2.40" shape="1034.06,1297.44 1036.34,1298.18"/>
    </edge>
    <edge id=":B1_11" function="internal">
        <lane id=":B1_11_0" index="0" speed="3.65" length="1.44" shape="1034.06,1297.44 1035.26,1298.24"/>
    </edge>
    <edge id=":B1_18" function="internal">
        <lane id=":B1_18_0" index="0" speed="6.36" length="13.03" shape="1036.34,1298.18 1037.94,1298.71 1039.94,1301.73 1039.72,1305.35 1036.99,1308.40"/>
    </edge>
    <edge id=":B1_19" function="internal">
        <lane id=":B1_19_0" index="0" speed="3.65" length="3.23" shape="1035.26,1298.24 1035.66,1299.04 1035.26,1299.84 1034.06,1300.64"/>
    </edge>
    <edge id=":B1_12" function="internal">
        <lane id=":B1_12_0" index="0" speed="5.53" length="11.20" shape="1035.39,1305.62 1038.55,1303.44 1039.38,1301.88 1037.88,1300.95 1034.06,1300.64"/>
    </edge>
    <edge id=":B1_13" function="internal">
        <lane id=":B1_13_0" index="0" speed="7.64" length="17.97" shape="1035.39,1305.62 1039.67,1302.33 1041.10,1299.04 1039.67,1295.75 1035.39,1292.45"/>
    </edge>
    <edge id=":B1_14" function="internal">
        <lane id=":B1_14_0" index="0" speed="13.89" length="21.25" shape="1035.39,1305.62 1039.56,1303.29 1044.87,1300.59 1050.32,1298.37 1054.86,1297.44"/>
    </edge>
    <edge id=":B1_15" function="internal">
        <lane id=":B1_15_0" index="0" speed="3.65" length="4.67" shape="1035.39,1305.62 1036.83,1305.72 1037.58,1306.21 1037.63,1307.10 1036.99,1308.40"/>
    </edge>
    <edge id=":B2_0" function="internal">
        <lane id=":B2_0_0" index="0" speed="13.89" length="19.62" shape="614.61,1552.26 610.69,1554.52 606.10,1557.37 601.85,1560.57 598.96,1563.85"/>
    </edge>
    <edge id=":B2_1" function="internal">
        <lane id=":B2_1_0" index="0" speed="9.00" length="25.54" shape="614.61,1552.26 607.52,1555.18 602.45,1554.60 599.41,1550.51 598.40,1542.90"/>
    </edge>
    <edge id=":B2_2" function="internal">
        <lane id=":B2_2_0" index="0" speed="6.36" length="15.42" shape="614.61,1552.26 610.61,1553.10 607.37,1551.48 605.74,1548.24 606.59,1544.24"/>
    </edge>
    <edge id=":B2_3" function="internal">
        <lane id=":B2_3_0" index="0" speed="3.65" length="4.67" shape="614.61,1552.26 613.17,1552.17 612.42,1551.67 612.37,1550.78 613.01,1549.49"/>
    </edge>
    <edge id=":B2_4" function="internal">
        <lane id=":B2_4_0" index="0" speed="5.53" length="11.20" shape="609.36,1545.84 607.72,1549.31 607.78,1551.07 609.54,1551.13 613.01,1549.49"/>
    </edge>
    <edge id=":B2_5" function="internal">
        <lane id=":B2_5_0" index="0" speed="13.89" length="20.80" shape="609.36,1545.84 598.96,1563.85"/>
    </edge>
    <edge id=":B2_6" function="internal">
        <lane id=":B2_6_0" index="0" speed="6.36" length="2.40" shape="609.36,1545.84 607.57,1547.44"/>
    </edge>
    <edge id=":B2_7" function="internal">
        <lane id=":B2_7_0" index="0" speed="3.65" length="1.44" shape="609.36,1545.84 608.06,1546.48"/>
    </edge>
    <edge id=":B2_16" function="internal">
        <lane id=":B2_16_0" index="0" speed="6.36" length="13.03" shape="607.57,1547.44 606.32,1548.57 602.70,1548.78 599.67,1546.79 598.40,1542.90"/>
    </edge>
    <edge id=":B2_17" function="internal">
        <lane id=":B2_17_0" index="0" speed="3.65" length="3.23" shape="608.06,1546.48 607.17,1546.42 606.68,1545.68 606.59,1544.24"/>
    </edge>
    <edge id=":B2_8" function="internal">
        <lane id=":B2_8_0" index="0" speed="5.53" length="11.20" shape="601.60,1542.90 601.91,1546.73 602.85,1548.22 604.40,1547.39 606.59,1544.24"/>
    </edge>
    <edge id=":B2_9" function="internal">
        <lane id=":B2_9_0" index="0" speed="7.64" length="17.97" shape="601.60,1542.90 602.31,1548.25 604.45,1551.14 608.02,1551.55 613.01,1549.49"/>
    </edge>
    <edge id=":B2_10" function="internal">
        <lane id=":B2_10_0" index="0" speed="13.89" length="21.25" shape="601.60,1542.90 601.54,1547.68 601.22,1553.63 600.42,1559.46 598.96,1563.85"/>
    </edge>
    <edge id=":B2_11" function="internal">
        <lane id=":B2_11_0" index="0" speed="3.65" length="4.67" shape="601.60,1542.90 600.80,1544.10 600.00,1544.50 599.20,1544.10 598.40,1542.90"/>
    </edge>
    <edge id=":B2_12" function="internal">
        <lane id=":B2_12_0" index="0" speed="13.89" length="19.62" shape="596.19,1562.25 597.59,1558.11 598.23,1552.83 598.41,1547.43 598.40,1542.90"/>
    </edge>
    <edge id=":B2_13" function="internal">
        <lane id=":B2_13_0" index="0" speed="13.89" length="20.80" shape="596.19,1562.25 606.59,1544.24"/>
    </edge>
    <edge id=":B2_14" function="internal">
        <lane id=":B2_14_0" index="0" speed="13.89" length="3.59" shape="596.19,1562.25 598.57,1559.57"/>
    </edge>
    <edge id=":B2_15" function="internal">
        <lane id=":B2_15_0" index="0" speed="3.65" length="1.44" shape="596.19,1562.25 597.48,1561.61"/>
    </edge>
    <edge id=":B2_18" function="internal">
        <lane id=":B2_18_0" index="0" speed="13.89" length="17.66" shape="598.57,1559.57 599.26,1558.78 603.91,1555.18 608.90,1551.93 613.01,1549.49"/>
    </edge>
    <edge id=":B2_19" function="internal">
        <lane id=":B2_19_0" index="0" speed="3.65" length="3.23" shape="597.48,1561.61 598.37,1561.67 598.86,1562.41 598.96,1563.85"/>
    </edge>
    <edge id=":B3_0" function="internal">
        <lane id=":B3_0_0" index="0" speed="13.89" length="19.62" shape="598.40,1055.17 598.41,1050.65 598.23,1045.25 597.59,1039.97 596.19,1035.82"/>
    </edge>
    <edge id=":B3_1" function="internal">
        <lane id=":B3_1_0" index="0" speed="9.00" length="25.54" shape="598.40,1055.17 599.41,1047.57 602.45,1043.48 607.52,1042.89 614.61,1045.82"/>
    </edge>
    <edge id=":B3_2" function="internal">
        <lane id=":B3_2_0" index="0" speed="6.36" length="15.42" shape="598.40,1055.17 599.67,1051.29 602.70,1049.30 606.32,1049.51 609.36,1052.24"/>
    </edge>
    <edge id=":B3_3" function="internal">
        <lane id=":B3_3_0" index="0" speed="3.65" length="4.67" shape="598.40,1055.17 599.20,1053.97 600.00,1053.57 600.80,1053.97 601.60,1055.17"/>
    </edge>
    <edge id=":B3_4" function="internal">
        <lane id=":B3_4_0" index="0" speed="5.53" length="11.20" shape="606.59,1053.84 604.40,1050.68 602.85,1049.85 601.91,1051.35 601.60,1055.17"/>
    </edge>
    <edge id=":B3_5" function="internal">
        <lane id=":B3_5_0" index="0" speed="13.89" length="20.80" shape="606.59,1053.84 596.19,1035.82"/>
    </edge>
    <edge id=":B3_6" function="internal">
        <lane id=":B3_6_0" index="0" speed="6.36" length="2.40" shape="606.59,1053.84 606.09,1051.49"/>
    </edge>
    <edge id=":B3_7" function="internal">
        <lane id=":B3_7_0" index="0" speed="3.65" length="1.44" shape="606.59,1053.84 606.68,1052.40"/>
    </edge>
    <edge id=":B3_16" function="internal">
        <lane id=":B3_16_0" index="0" speed="6.36" length="13.03" shape="606.09,1051.49 605.74,1049.84 607.37,1046.60 610.61,1044.97 614.61,1045.82"/>
    </edge>
    <edge id=":B3_17" function="internal">
        <lane id=":B3_17_0" index="0" speed="3.65" length="3.23" shape="606.68,1052.40 607.17,1051.65 608.06,1051.60 609.36,1052.24"/>
    </edge>
    <edge id=":B3_8" function="internal">
        <lane id=":B3_8_0" index="0" speed="5.53" length="11.20" shape="613.01,1048.59 609.54,1046.95 607.78,1047.01 607.72,1048.77 609.36,1052.24"/>
    </edge>
    <edge id=":B3_9" function="internal">
        <lane id=":B3_9_0" index="0" speed="7.64" length="17.97" shape="613.01,1048.59 608.02,1046.53 604.45,1046.94 602.31,1049.82 601.60,1055.17"/>
    </edge>
    <edge id=":B3_10" function="internal">
        <lane id=":B3_10_0" index="0" speed="13.89" length="21.25" shape="613.01,1048.59 608.90,1046.15 603.91,1042.89 599.26,1039.29 596.19,1035.82"/>
    </edge>
    <edge id=":B3_11" function="internal">
        <lane id=":B3_11_0" index="0" speed="3.65" length="4.67" shape="613.01,1048.59 612.37,1047.29 612.42,1046.40 613.17,1045.91 614.61,1045.82"/>
    </edge>
    <edge id=":B3_12" function="internal">
        <lane id=":B3_12_0" index="0" speed="13.89" length="19.62" shape="598.96,1034.22 601.85,1037.51 606.10,1040.71 610.69,1043.56 614.61,1045.82"/>
    </edge>
    <edge id=":B3_13" function="internal">
        <lane id=":B3_13_0" index="0" speed="13.89" length="20.80" shape="598.96,1034.22 609.36,1052.24"/>
    </edge>
    <edge id=":B3_14" function="internal">
        <lane id=":B3_14_0" index="0" speed="13.89" length="3.59" shape="598.96,1034.22 600.09,1037.63"/>
    </edge>
    <edge id=":B3_15" function="internal">
        <lane id=":B3_15_0" index="0" speed="3.65" length="1.44" shape="598.96,1034.22 598.86,1035.66"/>
    </edge>
    <edge id=":B3_18" function="internal">
        <lane id=":B3_18_0" index="0" speed="13.89" length="17.66" shape="600.09,1037.63 600.42,1038.62 601.22,1044.45 601.54,1050.40 601.60,1055.17"/>
    </edge>
    <edge id=":B3_19" function="internal">
        <lane id=":B3_19_0" index="0" speed="3.65" length="3.23" shape="598.86,1035.66 598.37,1036.41 597.48,1036.46 596.19,1035.82"/>
    </edge>
    <edge id=":C1_0" function="internal">
        <lane id=":C1_0_0" index="0" speed="13.89" length="19.62" shape="1354.86,1300.64 1350.57,1301.50 1345.67,1303.58 1340.91,1306.13 1336.99,1308.40"/>
    </edge>
    <edge id=":C1_1" function="internal">
        <lane id=":C1_1_0" index="0" speed="13.89" length="20.80" shape="1354.86,1300.64 1334.06,1300.64"/>
    </edge>
    <edge id=":C1_2" function="internal">
        <lane id=":C1_2_0" index="0" speed="13.89" length="3.59" shape="1354.86,1300.64 1351.34,1299.92"/>
    </edge>
    <edge id=":C1_3" function="internal">
        <lane id=":C1_3_0" index="0" speed="3.65" length="1.44" shape="1354.86,1300.64 1353.66,1299.84"/>
    </edge>
    <edge id=":C1_16" function="internal">
        <lane id=":C1_16_0" index="0" speed="13.89" length="17.66" shape="1351.34,1299.92 1350.32,1299.71 1344.87,1297.48 1339.56,1294.79 1335.39,1292.45"/>
    </edge>
    <edge id=":C1_17" function="internal">
        <lane id=":C1_17_0" index="0" speed="3.65" length="3.23" shape="1353.66,1299.84 1353.26,1299.04 1353.66,1298.24 1354.86,1297.44"/>
    </edge>
    <edge id=":C1_4" function="internal">
        <lane id=":C1_4_0" index="0" speed="13.89" length="19.62" shape="1336.99,1289.68 1340.91,1291.95 1345.67,1294.50 1350.57,1296.58 1354.86,1297.44"/>
    </edge>
    <edge id=":C1_5" function="internal">
        <lane id=":C1_5_0" index="0" speed="9.00" length="25.54" shape="1336.99,1289.68 1343.07,1294.36 1345.10,1299.04 1343.07,1303.72 1336.99,1308.40"/>
    </edge>
    <edge id=":C1_6" function="internal">
        <lane id=":C1_6_0" index="0" speed="6.36" length="15.42" shape="1336.99,1289.68 1339.72,1292.72 1339.94,1296.34 1337.94,1299.37 1334.06,1300.64"/>
    </edge>
    <edge id=":C1_7" function="internal">
        <lane id=":C1_7_0" index="0" speed="3.65" length="4.67" shape="1336.99,1289.68 1337.63,1290.97 1337.58,1291.87 1336.83,1292.36 1335.39,1292.45"/>
    </edge>
    <edge id=":C1_8" function="internal">
        <lane id=":C1_8_0" index="0" speed="5.53" length="11.20" shape="1334.06,1297.44 1337.88,1297.13 1339.38,1296.19 1338.55,1294.63 1335.39,1292.45"/>
    </edge>
    <edge id=":C1_9" function="internal">
        <lane id=":C1_9_0" index="0" speed="13.89" length="20.80" shape="1334.06,1297.44 1354.86,1297.44"/>
    </edge>
    <edge id=":C1_10" function="internal">
        <lane id=":C1_10_0" index="0" speed="6.36" length="2.40" shape="1334.06,1297.44 1336.34,1298.18"/>
    </edge>
    <edge id=":C1_11" function="internal">
        <lane id=":C1_11_0" index="0" speed="3.65" length="1.44" shape="1334.06,1297.44 1335.26,1298.24"/>
    </edge>
    <edge id=":C1_18" function="internal">
        <lane id=":C1_18_0" index="0" speed="6.36" length="13.03" shape="1336.34,1298.18 1337.94,1298.71 1339.94,1301.73 1339.72,1305.35 1336.99,1308.40"/>
    </edge>
    <edge id=":C1_19" function="internal">
        <lane id=":C1_19_0" index="0" speed="3.65" length="3.23" shape="1335.26,1298.24 1335.66,1299.04 1335.26,1299.84 1334.06,1300.64"/>
    </edge>
    <edge id=":C1_12" function="internal">
        <lane id=":C1_12_0" index="0" speed="5.53" length="11.20" shape="1335.39,1305.62 1338.55,1303.44 1339.38,1301.88 1337.88,1300.95 1334.06,1300.64"/>
    </edge>
    <edge id=":C1_13" function="internal">
        <lane id=":C1_13_0" index="0" speed="7.64" length="17.97" shape="1335.39,1305.62 1339.67,1302.33 1341.10,1299.04 1339.67,1295.75 1335.39,1292.45"/>
    </edge>
    <edge id=":C1_14" function="internal">
        <lane id=":C1_14_0" index="0" speed="13.89" length="21.25" shape="1335.39,1305.62 1339.56,1303.29 1344.87,1300.59 1350.32,1298.37 1354.86,1297.44"/>
    </edge>
    <edge id=":C1_15" function="internal">
        <lane id=":C1_15_0" index="0" speed="3.65" length="4.67" shape="1335.39,1305.62 1336.83,1305.72 1337.58,1306.21 1337.63,1307.10 1336.99,1308.40"/>
    </edge>
    <edge id=":C2_0" function="internal">
        <lane id=":C2_0_0" index="0" speed="13.89" length="19.62" shape="464.61,1812.07 460.69,1814.32 456.10,1817.18 451.85,1820.37 448.96,1823.66"/>
    </edge>
    <edge id=":C2_1" function="internal">
        <lane id=":C2_1_0" index="0" speed="9.00" length="25.54" shape="464.61,1812.07 457.52,1814.99 452.45,1814.41 449.41,1810.31 448.40,1802.71"/>
    </edge>
    <edge id=":C2_2" function="internal">
        <lane id=":C2_2_0" index="0" speed="6.36" length="15.42" shape="464.61,1812.07 460.61,1812.91 457.37,1811.29 455.74,1808.05 456.59,1804.05"/>
    </edge>
    <edge id=":C2_3" function="internal">
        <lane id=":C2_3_0" index="0" speed="3.65" length="4.67" shape="464.61,1812.07 463.17,1811.97 462.42,1811.48 462.37,1810.59 463.01,1809.30"/>
    </edge>
    <edge id=":C2_4" function="internal">
        <lane id=":C2_4_0" index="0" speed="5.53" length="11.20" shape="459.36,1805.65 457.72,1809.11 457.78,1810.88 459.54,1810.94 463.01,1809.30"/>
    </edge>
    <edge id=":C2_5" function="internal">
        <lane id=":C2_5_0" index="0" speed="13.89" length="20.80" shape="459.36,1805.65 448.96,1823.66"/>
    </edge>
    <edge id=":C2_6" function="internal">
        <lane id=":C2_6_0" index="0" speed="6.36" length="2.40" shape="459.36,1805.65 457.57,1807.25"/>
    </edge>
    <edge id=":C2_7" function="internal">
        <lane id=":C2_7_0" index="0" speed="3.65" length="1.44" shape="459.36,1805.65 458.06,1806.29"/>
    </edge>
    <edge id=":C2_16" function="internal">
        <lane id=":C2_16_0" index="0" speed="6.36" length="13.03" shape="457.57,1807.25 456.32,1808.38 452.70,1808.59 449.67,1806.60 448.40,1802.71"/>
    </edge>
    <edge id=":C2_17" function="internal">
        <lane id=":C2_17_0" index="0" speed="3.65" length="3.23" shape="458.06,1806.29 457.17,1806.23 456.68,1805.49 456.59,1804.05"/>
    </edge>
    <edge id=":C2_8" function="internal">
        <lane id=":C2_8_0" index="0" speed="5.53" length="11.20" shape="451.60,1802.71 451.91,1806.53 452.85,1808.03 454.40,1807.20 456.59,1804.05"/>
    </edge>
    <edge id=":C2_9" function="internal">
        <lane id=":C2_9_0" index="0" speed="7.64" length="17.97" shape="451.60,1802.71 452.31,1808.06 454.45,1810.94 458.02,1811.35 463.01,1809.30"/>
    </edge>
    <edge id=":C2_10" function="internal">
        <lane id=":C2_10_0" index="0" speed="13.89" length="21.25" shape="451.60,1802.71 451.54,1807.48 451.22,1813.44 450.42,1819.26 448.96,1823.66"/>
    </edge>
    <edge id=":C2_11" function="internal">
        <lane id=":C2_11_0" index="0" speed="3.65" length="4.67" shape="451.60,1802.71 450.80,1803.91 450.00,1804.31 449.20,1803.91 448.40,1802.71"/>
    </edge>
    <edge id=":C2_12" function="internal">
        <lane id=":C2_12_0" index="0" speed="13.89" length="19.62" shape="446.19,1822.06 447.59,1817.91 448.23,1812.64 448.41,1807.23 448.40,1802.71"/>
    </edge>
    <edge id=":C2_13" function="internal">
        <lane id=":C2_13_0" index="0" speed="13.89" length="20.80" shape="446.19,1822.06 456.59,1804.05"/>
    </edge>
    <edge id=":C2_14" function="internal">
        <lane id=":C2_14_0" index="0" speed="13.89" length="3.59" shape="446.19,1822.06 448.57,1819.37"/>
    </edge>
    <edge id=":C2_15" function="internal">
        <lane id=":C2_15_0" index="0" speed="3.65" length="1.44" shape="446.19,1822.06 447.48,1821.42"/>
    </edge>
    <edge id=":C2_18" function="internal">
        <lane id=":C2_18_0" index="0" speed="13.89" length="17.66" shape="448.57,1819.37 449.26,1818.59 453.91,1814.99 458.90,1811.74 463.01,1809.30"/>
    </edge>
    <edge id=":C2_19" function="internal">
        <lane id=":C2_19_0" index="0" speed="3.65" length="3.23" shape="447.48,1821.42 448.37,1821.47 448.86,1822.22 448.96,1823.66"/>
    </edge>
    <edge id=":C3_0" function="internal">
        <lane id=":C3_0_0" index="0" speed="13.89" length="19.62" shape="448.40,795.37 448.41,790.84 448.23,785.44 447.59,780.16 446.19,776.02"/>
    </edge>
    <edge id=":C3_1" function="internal">
        <lane id=":C3_1_0" index="0" speed="9.00" length="25.54" shape="448.40,795.37 449.41,787.76 452.45,783.67 457.52,783.08 464.61,786.01"/>
    </edge>
    <edge id=":C3_2" function="internal">
        <lane id=":C3_2_0" index="0" speed="6.36" length="15.42" shape="448.40,795.37 449.67,791.48 452.70,789.49 456.32,789.70 459.36,792.43"/>
    </edge>
    <edge id=":C3_3" function="internal">
        <lane id=":C3_3_0" index="0" speed="3.65" length="4.67" shape="448.40,795.37 449.20,794.17 450.00,793.77 450.80,794.17 451.60,795.37"/>
    </edge>
    <edge id=":C3_4" function="internal">
        <lane id=":C3_4_0" index="0" speed="5.53" length="11.20" shape="456.59,794.03 454.40,790.87 452.85,790.05 451.91,791.54 451.60,795.37"/>
    </edge>
    <edge id=":C3_5" function="internal">
        <lane id=":C3_5_0" index="0" speed="13.89" length="20.80" shape="456.59,794.03 446.19,776.02"/>
    </edge>
    <edge id=":C3_6" function="internal">
        <lane id=":C3_6_0" index="0" speed="6.36" length="2.40" shape="456.59,794.03 456.09,791.68"/>
    </edge>
    <edge id=":C3_7" function="internal">
        <lane id=":C3_7_0" index="0" speed="3.65" length="1.44" shape="456.59,794.03 456.68,792.59"/>
    </edge>
    <edge id=":C3_16" function="internal">
        <lane id=":C3_16_0" index="0" speed="6.36" length="13.03" shape="456.09,791.68 455.74,790.03 457.37,786.79 460.61,785.17 464.61,786.01"/>
    </edge>
    <edge id=":C3_17" function="internal">
        <lane id=":C3_17_0" index="0" speed="3.65" length="3.23" shape="456.68,792.59 457.17,791.84 458.06,791.79 459.36,792.43"/>
    </edge>
    <edge id=":C3_8" function="internal">
        <lane id=":C3_8_0" index="0" speed="5.53" length="11.20" shape="463.01,788.78 459.54,787.14 457.78,787.20 457.72,788.96 459.36,792.43"/>
    </edge>
    <edge id=":C3_9" function="internal">
        <lane id=":C3_9_0" index="0" speed="7.64" length="17.97" shape="463.01,788.78 458.02,786.72 454.45,787.13 452.31,790.01 451.60,795.37"/>
    </edge>
    <edge id=":C3_10" function="internal">
        <lane id=":C3_10_0" index="0" speed="13.89" length="21.25" shape="463.01,788.78 458.90,786.34 453.91,783.08 449.26,779.49 446.19,776.02"/>
    </edge>
    <edge id=":C3_11" function="internal">
        <lane id=":C3_11_0" index="0" speed="3.65" length="4.67" shape="463.01,788.78 462.37,787.49 462.42,786.59 463.17,786.10 464.61,786.01"/>
    </edge>
    <edge id=":C3_12" function="internal">
        <lane id=":C3_12_0" index="0" speed="13.89" length="19.62" shape="448.96,774.42 451.85,777.70 456.10,780.90 460.69,783.75 464.61,786.01"/>
    </edge>
    <edge id=":C3_13" function="internal">
        <lane id=":C3_13_0" index="0" speed="13.89" length="20.80" shape="448.96,774.42 459.36,792.43"/>
    </edge>
    <edge id=":C3_14" function="internal">
        <lane id=":C3_14_0" index="0" speed="13.89" length="3.59" shape="448.96,774.42 450.09,777.82"/>
    </edge>
    <edge id=":C3_15" function="internal">
        <lane id=":C3_15_0" index="0" speed="3.65" length="1.44" shape="448.96,774.42 448.86,775.86"/>
    </edge>
    <edge id=":C3_18" function="internal">
        <lane id=":C3_18_0" index="0" speed="13.89" length="17.66" shape="450.09,777.82 450.42,778.81 451.22,784.64 451.54,790.59 451.60,795.37"/>
    </edge>
    <edge id=":C3_19" function="internal">
        <lane id=":C3_19_0" index="0" speed="3.65" length="3.23" shape="448.86,775.86 448.37,776.60 447.48,776.66 446.19,776.02"/>
    </edge>
    <edge id=":D1_0" function="internal">
        <lane id=":D1_0_0" index="0" speed="13.89" length="19.62" shape="1654.86,1300.64 1650.57,1301.50 1645.67,1303.58 1640.91,1306.13 1636.99,1308.40"/>
    </edge>
    <edge id=":D1_1" function="internal">
        <lane id=":D1_1_0" index="0" speed="13.89" length="20.80" shape="1654.86,1300.64 1634.06,1300.64"/>
    </edge>
    <edge id=":D1_2" function="internal">
        <lane id=":D1_2_0" index="0" speed="13.89" length="3.59" shape="1654.86,1300.64 1651.34,1299.92"/>
    </edge>
    <edge id=":D1_3" function="internal">
        <lane id=":D1_3_0" index="0" speed="3.65" length="1.44" shape="1654.86,1300.64 1653.66,1299.84"/>
    </edge>
    <edge id=":D1_16" function="internal">
        <lane id=":D1_16_0" index="0" speed="13.89" length="17.66" shape="1651.34,1299.92 1650.32,1299.71 1644.87,1297.48 1639.56,1294.79 1635.39,1292.45"/>
    </edge>
    <edge id=":D1_17" function="internal">
        <lane id=":D1_17_0" index="0" speed="3.65" length="3.23" shape="1653.66,1299.84 1653.26,1299.04 1653.66,1298.24 1654.86,1297.44"/>
    </edge>
    <edge id=":D1_4" function="internal">
        <lane id=":D1_4_0" index="0" speed="13.89" length="19.62" shape="1636.99,1289.68 1640.91,1291.95 1645.67,1294.50 1650.57,1296.58 1654.86,1297.44"/>
    </edge>
    <edge id=":D1_5" function="internal">
        <lane id=":D1_5_0" index="0" speed="9.00" length="25.54" shape="1636.99,1289.68 1643.07,1294.36 1645.10,1299.04 1643.07,1303.72 1636.99,1308.40"/>
    </edge>
    <edge id=":D1_6" function="internal">
        <lane id=":D1_6_0" index="0" speed="6.36" length="15.42" shape="1636.99,1289.68 1639.72,1292.72 1639.94,1296.34 1637.94,1299.37 1634.06,1300.64"/>
    </edge>
    <edge id=":D1_7" function="internal">
        <lane id=":D1_7_0" index="0" speed="3.65" length="4.67" shape="1636.99,1289.68 1637.63,1290.97 1637.58,1291.87 1636.83,1292.36 1635.39,1292.45"/>
    </edge>
    <edge id=":D1_8" function="internal">
        <lane id=":D1_8_0" index="0" speed="5.53" length="11.20" shape="1634.06,1297.44 1637.88,1297.13 1639.38,1296.19 1638.55,1294.63 1635.39,1292.45"/>
    </edge>
    <edge id=":D1_9" function="internal">
        <lane id=":D1_9_0" index="0" speed="13.89" length="20.80" shape="1634.06,1297.44 1654.86,1297.44"/>
    </edge>
    <edge id=":D1_10" function="internal">
        <lane id=":D1_10_0" index="0" speed="6.36" length="2.40" shape="1634.06,1297.44 1636.34,1298.18"/>
    </edge>
    <edge id=":D1_11" function="internal">
        <lane id=":D1_11_0" index="0" speed="3.65" length="1.44" shape="1634.06,1297.44 1635.26,1298.24"/>
    </edge>
    <edge id=":D1_18" function="internal">
        <lane id=":D1_18_0" index="0" speed="6.36" length="13.03" shape="1636.34,1298.18 1637.94,1298.71 1639.94,1301.73 1639.72,1305.35 1636.99,1308.40"/>
    </edge>
    <edge id=":D1_19" function="internal">
        <lane id=":D1_19_0" index="0" speed="3.65" length="3.23" shape="1635.26,1298.24 1635.66,1299.04 1635.26,1299.84 1634.06,1300.64"/>
    </edge>
    <edge id=":D1_12" function="internal">
        <lane id=":D1_12_0" index="0" speed="5.53" length="11.20" shape="1635.39,1305.62 1638.55,1303.44 1639.38,1301.88 1637.88,1300.95 1634.06,1300.64"/>
    </edge>
    <edge id=":D1_13" function="internal">
        <lane id=":D1_13_0" index="0" speed="7.64" length="17.97" shape="1635.39,1305.62 1639.67,1302.33 1641.10,1299.04 1639.67,1295.75 1635.39,1292.45"/>
    </edge>
    <edge id=":D1_14" function="internal">
        <lane id=":D1_14_0" index="0" speed="13.89" length="21.25" shape="1635.39,1305.62 1639.56,1303.29 1644.87,1300.59 1650.32,1298.37 1654.86,1297.44"/>
    </edge>
    <edge id=":D1_15" function="internal">
        <lane id=":D1_15_0" index="0" speed="3.65" length="4.67" shape="1635.39,1305.62 1636.83,1305.72 1637.58,1306.21 1637.63,1307.10 1636.99,1308.40"/>
    </edge>
    <edge id=":D2_0" function="internal">
        <lane id=":D2_0_0" index="0" speed="13.89" length="19.62" shape="314.61,2071.88 310.69,2074.13 306.10,2076.99 301.85,2080.18 298.96,2083.47"/>
    </edge>
    <edge id=":D2_1" function="internal">
        <lane id=":D2_1_0" index="0" speed="9.00" length="25.54" shape="314.61,2071.88 307.52,2074.80 302.45,2074.21 299.41,2070.12 298.40,2062.52"/>
    </edge>
    <edge id=":D2_2" function="internal">