<?xml version="1.0" encoding="UTF-8"?>

<!-- generated on 2024-05-08 14:43:26 by Eclipse SUMO netgenerate Version 1.19.0
<configuration xmlns:xsi="http://www.w3.org/2001/XMLSchema-instance" xsi:noNamespaceSchemaLocation="http://sumo.dlr.de/xsd/netgenerateConfiguration.xsd">

    <random_network>
        <rand value="true"/>
        <rand.iterations value="50"/>
        <rand.min-angle value="10"/>
    </random_network>

    <output>
        <output-file value="MySUMORandFile.net.xml"/>
    </output>

</configuration>
-->

<net version="1.16" junctionCornerDetail="5" limitTurnSpeed="5.50" xmlns:xsi="http://www.w3.org/2001/XMLSchema-instance" xsi:noNamespaceSchemaLocation="http://sumo.dlr.de/xsd/net_file.xsd">

    <location netOffset="546.06,584.21" convBoundary="0.00,0.00,1143.85,1305.93" origBoundary="-546.06,-584.21,597.79,721.72" projParameter="!"/>

    <edge id=":1_0" function="internal">
        <lane id=":1_0_0" index="0" speed="11.26" length="16.20" shape="544.57,591.61 543.94,588.39 542.16,585.25 539.23,582.18 535.15,579.19"/>
    </edge>
    <edge id=":1_1" function="internal">
        <lane id=":1_1_0" index="0" speed="13.89" length="18.84" shape="544.57,591.61 544.26,587.28 543.55,582.26 542.65,577.27 541.72,573.02"/>
    </edge>
    <edge id=":1_2" function="internal">
        <lane id=":1_2_0" index="0" speed="7.91" length="3.57" shape="544.57,591.61 545.02,588.07"/>
    </edge>
    <edge id=":1_3" function="internal">
        <lane id=":1_3_0" index="0" speed="3.65" length="1.44" shape="544.57,591.61 545.35,590.40"/>
    </edge>
    <edge id=":1_16" function="internal">
        <lane id=":1_16_0" index="0" speed="7.91" length="10.83" shape="545.02,588.07 545.07,587.67 546.73,584.90 549.53,583.31 553.49,582.89"/>
    </edge>
    <edge id=":1_17" function="internal">
        <lane id=":1_17_0" index="0" speed="3.65" length="3.23" shape="545.35,590.40 546.15,589.99 546.95,590.37 547.77,591.56"/>
    </edge>
    <edge id=":1_4" function="internal">
        <lane id=":1_4_0" index="0" speed="6.39" length="9.04" shape="553.37,586.09 550.88,586.35 549.12,587.35 548.09,589.09 547.77,591.56"/>
    </edge>
    <edge id=":1_5" function="internal">
        <lane id=":1_5_0" index="0" speed="13.89" length="19.61" shape="553.37,586.09 549.01,585.31 543.97,583.57 539.08,581.37 535.15,579.19"/>
    </edge>
    <edge id=":1_6" function="internal">
        <lane id=":1_6_0" index="0" speed="10.07" length="18.26" shape="553.37,586.09 549.93,584.78 546.45,581.62 543.51,577.43 541.72,573.02"/>
    </edge>
    <edge id=":1_7" function="internal">
        <lane id=":1_7_0" index="0" speed="3.65" length="4.67" shape="553.37,586.09 552.20,585.24 551.83,584.43 552.26,583.65 553.49,582.89"/>
    </edge>
    <edge id=":1_8" function="internal">
        <lane id=":1_8_0" index="0" speed="9.08" length="14.69" shape="544.83,572.27 546.31,576.83 548.24,580.12 550.64,582.14 553.49,582.89"/>
    </edge>
    <edge id=":1_9" function="internal">
        <lane id=":1_9_0" index="0" speed="13.89" length="19.54" shape="544.83,572.27 545.77,576.63 546.71,581.86 547.44,587.12 547.77,591.56"/>
    </edge>
    <edge id=":1_10" function="internal">
        <lane id=":1_10_0" index="0" speed="7.43" length="6.42" shape="544.83,572.27 545.62,578.48 545.55,578.62"/>
    </edge>
    <edge id=":1_11" function="internal">
        <lane id=":1_11_0" index="0" speed="3.65" length="1.44" shape="544.83,572.27 544.34,573.62"/>
    </edge>
    <edge id=":1_18" function="internal">
        <lane id=":1_18_0" index="0" speed="7.43" length="13.09" shape="545.55,578.62 544.26,581.70 540.77,581.94 535.15,579.19"/>
    </edge>
    <edge id=":1_19" function="internal">
        <lane id=":1_19_0" index="0" speed="3.65" length="3.23" shape="544.34,573.62 543.65,574.20 542.78,574.00 541.72,573.02"/>
    </edge>
    <edge id=":1_12" function="internal">
        <lane id=":1_12_0" index="0" speed="5.47" length="9.79" shape="536.86,576.49 539.69,577.87 541.44,577.75 542.11,576.13 541.72,573.02"/>
    </edge>
    <edge id=":1_13" function="internal">
        <lane id=":1_13_0" index="0" speed="13.89" length="17.96" shape="536.86,576.49 540.54,578.59 544.89,580.62 549.38,582.19 553.49,582.89"/>
    </edge>
    <edge id=":1_14" function="internal">
        <lane id=":1_14_0" index="0" speed="12.18" length="19.05" shape="536.86,576.49 540.77,579.66 544.26,583.72 546.78,587.93 547.77,591.56"/>
    </edge>
    <edge id=":1_15" function="internal">
        <lane id=":1_15_0" index="0" speed="3.65" length="4.67" shape="536.86,576.49 537.45,577.81 537.36,578.70 536.59,579.16 535.15,579.19"/>
    </edge>
    <edge id=":101_0" function="internal">
        <lane id=":101_0_0" index="0" speed="3.65" length="4.67" shape="885.78,981.49 885.68,982.92 885.19,983.67 884.29,983.72 883.00,983.07"/>
    </edge>
    <edge id=":103_0" function="internal">
        <lane id=":103_0_0" index="0" speed="5.46" length="10.00" shape="69.79,243.47 68.22,240.61 66.73,239.70 65.33,240.74 64.01,243.71"/>
    </edge>
    <edge id=":103_1" function="internal">
        <lane id=":103_1_0" index="0" speed="8.50" length="18.76" shape="69.79,243.47 67.93,237.47 67.99,232.93 69.98,229.83 73.90,228.18"/>
    </edge>
    <edge id=":103_2" function="internal">
        <lane id=":103_2_0" index="0" speed="3.65" length="4.67" shape="69.79,243.47 70.06,242.05 70.64,241.37 71.54,241.43 72.74,242.23"/>
    </edge>
    <edge id=":103_3" function="internal">
        <lane id=":103_3_0" index="0" speed="7.13" length="12.84" shape="74.50,231.33 72.18,232.42 71.12,234.61 71.30,237.87 72.74,242.23"/>
    </edge>
    <edge id=":103_4" function="internal">
        <lane id=":103_4_0" index="0" speed="10.95" length="16.99" shape="74.50,231.33 71.26,232.59 68.43,235.07 66.01,238.78 64.01,243.71"/>
    </edge>
    <edge id=":103_5" function="internal">
        <lane id=":103_5_0" index="0" speed="3.65" length="1.28" shape="74.50,231.33 73.32,230.83"/>
    </edge>
    <edge id=":103_9" function="internal">
        <lane id=":103_9_0" index="0" speed="3.65" length="3.39" shape="73.32,230.83 73.17,230.76 72.63,230.05 72.87,229.19 73.90,228.18"/>
    </edge>
    <edge id=":103_6" function="internal">
        <lane id=":103_6_0" index="0" speed="11.97" length="20.41" shape="60.96,242.73 63.34,236.98 66.29,232.65 69.81,229.71 73.90,228.18"/>
    </edge>
    <edge id=":103_7" function="internal">
        <lane id=":103_7_0" index="0" speed="7.49" length="8.11" shape="60.96,242.73 63.66,236.67 64.85,235.79"/>
    </edge>
    <edge id=":103_8" function="internal">
        <lane id=":103_8_0" index="0" speed="3.65" length="1.44" shape="60.96,242.73 62.10,241.83"/>
    </edge>
    <edge id=":103_10" function="internal">
        <lane id=":103_10_0" index="0" speed="7.49" length="12.26" shape="64.85,235.79 66.52,234.56 69.54,236.42 72.74,242.23"/>
    </edge>
    <edge id=":103_11" function="internal">
        <lane id=":103_11_0" index="0" speed="3.65" length="3.23" shape="62.10,241.83 62.98,241.70 63.62,242.32 64.01,243.71"/>
    </edge>
    <edge id=":11_0" function="internal">
        <lane id=":11_0_0" index="0" speed="13.89" length="15.64" shape="339.68,300.11 338.55,296.42 337.29,292.65 335.84,288.96 334.14,285.52"/>
    </edge>
    <edge id=":11_1" function="internal">
        <lane id=":11_1_0" index="0" speed="7.39" length="5.39" shape="339.68,300.11 338.74,294.80"/>
    </edge>
    <edge id=":11_2" function="internal">
        <lane id=":11_2_0" index="0" speed="3.65" length="1.44" shape="339.68,300.11 340.10,298.73"/>
    </edge>
    <edge id=":11_9" function="internal">
        <lane id=":11_9_0" index="0" speed="7.39" length="13.04" shape="338.74,294.80 338.67,294.42 339.84,291.19 343.19,290.42 348.71,292.12"/>
    </edge>
    <edge id=":11_10" function="internal">
        <lane id=":11_10_0" index="0" speed="3.65" length="3.23" shape="340.10,298.73 340.75,298.11 341.63,298.26 342.75,299.18"/>
    </edge>
    <edge id=":11_3" function="internal">
        <lane id=":11_3_0" index="0" speed="5.51" length="9.54" shape="347.42,295.04 344.56,294.16 342.83,294.56 342.22,296.23 342.75,299.18"/>
    </edge>
    <edge id=":11_4" function="internal">
        <lane id=":11_4_0" index="0" speed="13.89" length="16.57" shape="347.42,295.04 343.76,293.31 339.99,291.15 336.61,288.56 334.14,285.52"/>
    </edge>
    <edge id=":11_5" function="internal">
        <lane id=":11_5_0" index="0" speed="3.65" length="4.67" shape="347.42,295.04 346.65,293.82 346.60,292.93 347.29,292.36 348.71,292.12"/>
    </edge>
    <edge id=":11_6" function="internal">
        <lane id=":11_6_0" index="0" speed="13.89" length="14.60" shape="336.93,283.94 339.16,286.77 342.03,288.90 345.29,290.60 348.71,292.12"/>
    </edge>
    <edge id=":11_7" function="internal">
        <lane id=":11_7_0" index="0" speed="13.89" length="16.34" shape="336.93,283.94 338.67,287.49 340.22,291.40 341.57,295.39 342.75,299.18"/>
    </edge>
    <edge id=":11_8" function="internal">
        <lane id=":11_8_0" index="0" speed="3.65" length="1.44" shape="336.93,283.94 336.82,285.38"/>
    </edge>
    <edge id=":11_11" function="internal">
        <lane id=":11_11_0" index="0" speed="3.65" length="3.23" shape="336.82,285.38 336.32,286.12 335.43,286.17 334.14,285.52"/>
    </edge>
    <edge id=":111_0" function="internal">
        <lane id=":111_0_0" index="0" speed="5.81" length="13.41" shape="109.91,349.83 108.72,345.20 107.56,343.66 106.42,345.22 105.30,349.86"/>
    </edge>
    <edge id=":111_1" function="internal">
        <lane id=":111_1_0" index="0" speed="7.89" length="19.99" shape="109.91,349.83 107.90,342.52 105.34,338.43 102.22,337.55 98.55,339.88"/>
    </edge>
    <edge id=":111_2" function="internal">
        <lane id=":111_2_0" index="0" speed="13.89" length="28.92" shape="109.91,349.83 108.67,344.03 106.72,335.71 104.58,327.45 102.78,321.81"/>
    </edge>
    <edge id=":111_3" function="internal">
        <lane id=":111_3_0" index="0" speed="13.89" length="28.66" shape="109.91,349.83 108.52,339.97 108.55,332.11 110.00,326.26 112.89,322.41"/>
    </edge>
    <edge id=":111_4" function="internal">
        <lane id=":111_4_0" index="0" speed="6.85" length="18.26" shape="109.91,349.83 110.07,344.38 112.17,340.01 115.45,338.09 119.15,339.99"/>
    </edge>
    <edge id=":111_5" function="internal">
        <lane id=":111_5_0" index="0" speed="3.65" length="4.67" shape="109.91,349.83 110.47,348.50 111.18,347.95 112.04,348.19 113.05,349.22"/>
    </edge>
    <edge id=":111_6" function="internal">
        <lane id=":111_6_0" index="0" speed="6.16" length="14.43" shape="116.72,342.07 114.04,339.65 112.53,340.03 112.20,343.22 113.05,349.22"/>
    </edge>
    <edge id=":111_7" function="internal">
        <lane id=":111_7_0" index="0" speed="7.69" length="19.88" shape="116.72,342.07 112.90,338.92 109.72,339.17 107.19,342.82 105.30,349.86"/>
    </edge>
    <edge id=":111_8" function="internal">
        <lane id=":111_8_0" index="0" speed="9.41" length="21.21" shape="116.72,342.07 112.07,337.82 107.49,336.04 102.98,336.73 98.55,339.88"/>
    </edge>
    <edge id=":111_9" function="internal">
        <lane id=":111_9_0" index="0" speed="13.89" length="24.63" shape="116.72,342.07 113.45,337.95 109.26,332.24 105.32,326.39 102.78,321.81"/>
    </edge>
    <edge id=":111_10" function="internal">
        <lane id=":111_10_0" index="0" speed="9.80" length="22.46" shape="116.72,342.07 112.14,335.77 109.98,330.39 110.23,325.94 112.89,322.41"/>
    </edge>
    <edge id=":111_11" function="internal">
        <lane id=":111_11_0" index="0" speed="3.65" length="4.67" shape="116.72,342.07 116.55,340.64 116.90,339.81 117.76,339.60 119.15,339.99"/>
    </edge>
    <edge id=":111_12" function="internal">
        <lane id=":111_12_0" index="0" speed="8.66" length="17.28" shape="114.88,324.92 113.22,327.39 113.38,330.72 115.36,334.92 119.15,339.99"/>
    </edge>
    <edge id=":111_13" function="internal">
        <lane id=":111_13_0" index="0" speed="13.08" length="25.21" shape="114.88,324.92 112.63,328.12 111.58,333.24 111.72,340.27 113.05,349.22"/>
    </edge>
    <edge id=":111_14" function="internal">
        <lane id=":111_14_0" index="0" speed="13.89" length="26.92" shape="114.88,324.92 111.85,329.43 108.95,336.71 106.62,344.33 105.30,349.86"/>
    </edge>
    <edge id=":111_15" function="internal">
        <lane id=":111_15_0" index="0" speed="13.89" length="22.15" shape="114.88,324.92 111.17,328.07 106.57,332.24 102.04,336.49 98.55,339.88"/>
    </edge>
    <edge id=":111_16" function="internal">
        <lane id=":111_16_0" index="0" speed="7.60" length="4.04" shape="114.88,324.92 111.39,326.95"/>
    </edge>
    <edge id=":111_17" function="internal">
        <lane id=":111_17_0" index="0" speed="3.65" length="1.44" shape="114.88,324.92 113.44,325.04"/>
    </edge>
    <edge id=":111_36" function="internal">
        <lane id=":111_36_0" index="0" speed="7.60" length="11.30" shape="111.39,326.95 111.09,327.13 107.81,327.34 105.04,325.57 102.78,321.81"/>
    </edge>
    <edge id=":111_37" function="internal">
        <lane id=":111_37_0" index="0" speed="3.65" length="3.23" shape="113.44,325.04 112.63,324.66 112.45,323.78 112.89,322.41"/>
    </edge>
    <edge id=":111_18" function="internal">
        <lane id=":111_18_0" index="0" speed="6.00" length="9.08" shape="105.73,320.57 107.07,322.80 108.71,323.85 110.65,323.72 112.89,322.41"/>
    </edge>
    <edge id=":111_19" function="internal">
        <lane id=":111_19_0" index="0" speed="13.89" length="23.64" shape="105.73,320.57 108.19,325.02 111.95,330.58 115.96,336.00 119.15,339.99"/>
    </edge>
    <edge id=":111_20" function="internal">
        <lane id=":111_20_0" index="0" speed="13.89" length="29.58" shape="105.73,320.57 107.56,326.30 109.76,334.78 111.78,343.32 113.05,349.22"/>
    </edge>
    <edge id=":111_21" function="internal">
        <lane id=":111_21_0" index="0" speed="13.89" length="29.42" shape="105.73,320.57 106.61,326.40 106.57,335.10 106.01,343.86 105.30,349.86"/>
    </edge>
    <edge id=":111_22" function="internal">
        <lane id=":111_22_0" index="0" speed="11.59" length="21.83" shape="105.73,320.57 106.64,324.99 105.74,329.68 103.04,334.64 98.55,339.88"/>
    </edge>
    <edge id=":111_23" function="internal">
        <lane id=":111_23_0" index="0" speed="3.65" length="4.67" shape="105.73,320.57 105.46,321.99 104.88,322.67 103.99,322.61 102.78,321.81"/>
    </edge>
    <edge id=":111_24" function="internal">
        <lane id=":111_24_0" index="0" speed="10.57" length="18.05" shape="96.29,337.61 100.17,333.17 102.54,329.05 103.42,325.27 102.78,321.81"/>
    </edge>
    <edge id=":111_25" function="internal">
        <lane id=":111_25_0" index="0" speed="13.89" length="22.52" shape="96.29,337.61 99.83,334.19 104.45,329.85 109.14,325.60 112.89,322.41"/>
    </edge>
    <edge id=":111_26" function="internal">
        <lane id=":111_26_0" index="0" speed="10.50" length="4.82" shape="96.29,337.61 100.21,334.80"/>
    </edge>
    <edge id=":111_27" function="internal">
        <lane id=":111_27_0" index="0" speed="8.96" length="2.75" shape="96.29,337.61 98.70,336.29"/>
    </edge>
    <edge id=":111_28" function="internal">
        <lane id=":111_28_0" index="0" speed="7.33" length="2.12" shape="96.29,337.61 98.24,336.78"/>
    </edge>
    <edge id=":111_29" function="internal">
        <lane id=":111_29_0" index="0" speed="3.65" length="1.44" shape="96.29,337.61 97.70,337.33"/>
    </edge>
    <edge id=":111_38" function="internal">
        <lane id=":111_38_0" index="0" speed="10.50" length="21.83" shape="100.21,334.80 101.94,333.56 107.63,332.60 113.37,334.75 119.15,339.99"/>
    </edge>
    <edge id=":111_39" function="internal">
        <lane id=":111_39_0" index="0" speed="8.96" length="23.48" shape="98.70,336.29 101.99,334.49 106.87,336.25 110.65,341.59 113.05,349.22"/>
    </edge>
    <edge id=":111_40" function="internal">
        <lane id=":111_40_0" index="0" speed="7.33" length="18.21" shape="98.24,336.78 100.43,335.84 103.60,338.38 105.36,343.60 105.30,349.86"/>
    </edge>
    <edge id=":111_41" function="internal">
        <lane id=":111_41_0" index="0" speed="3.65" length="3.23" shape="97.70,337.33 98.55,337.62 98.83,338.47 98.55,339.88"/>
    </edge>
    <edge id=":111_30" function="internal">
        <lane id=":111_30_0" index="0" speed="6.44" length="15.30" shape="102.15,349.30 102.99,342.78 102.66,339.03 101.18,338.07 98.55,339.88"/>
    </edge>
    <edge id=":111_31" function="internal">
        <lane id=":111_31_0" index="0" speed="13.89" length="27.62" shape="102.15,349.30 102.89,343.58 103.52,335.44 103.63,327.36 102.78,321.81"/>
    </edge>
    <edge id=":111_32" function="internal">
        <lane id=":111_32_0" index="0" speed="13.89" length="29.15" shape="102.15,349.30 103.65,343.46 106.38,335.17 109.68,327.23 112.89,322.41"/>
    </edge>
    <edge id=":111_33" function="internal">
        <lane id=":111_33_0" index="0" speed="8.60" length="25.26" shape="102.15,349.30 104.62,342.22 108.74,337.60 113.81,336.50 119.15,339.99"/>
    </edge>
    <edge id=":111_34" function="internal">
        <lane id=":111_34_0" index="0" speed="6.11" length="15.05" shape="102.15,349.30 104.14,345.94 107.57,344.79 111.01,345.88 113.05,349.22"/>
    </edge>
    <edge id=":111_35" function="internal">
        <lane id=":111_35_0" index="0" speed="3.65" length="4.67" shape="102.15,349.30 103.15,348.26 104.01,348.01 104.72,348.54 105.30,349.86"/>
    </edge>
    <edge id=":113_0" function="internal">
        <lane id=":113_0_0" index="0" speed="7.90" length="12.88" shape="444.25,131.20 442.30,128.66 439.80,127.32 436.74,127.17 433.12,128.22"/>
    </edge>
    <edge id=":113_1" function="internal">
        <lane id=":113_1_0" index="0" speed="13.89" length="17.30" shape="444.25,131.20 442.01,127.78 439.05,124.33 435.76,121.19 432.50,118.69"/>
    </edge>
    <edge id=":113_2" function="internal">
        <lane id=":113_2_0" index="0" speed="7.52" length="15.75" shape="444.25,131.20 442.69,126.91 443.11,123.63 445.52,121.37 449.92,120.12"/>
    </edge>
    <edge id=":113_3" function="internal">
        <lane id=":113_3_0" index="0" speed="3.65" length="4.67" shape="444.25,131.20 444.39,129.77 444.91,129.04 445.81,129.02 447.08,129.70"/>
    </edge>
    <edge id=":113_4" function="internal">
        <lane id=":113_4_0" index="0" speed="5.88" length="9.11" shape="450.35,123.29 447.81,124.01 446.42,125.32 446.17,127.22 447.08,129.70"/>
    </edge>
    <edge id=":113_5" function="internal">
        <lane id=":113_5_0" index="0" speed="13.89" length="17.96" shape="450.35,123.29 446.22,124.07 441.61,125.28 437.06,126.72 433.12,128.22"/>
    </edge>
    <edge id=":113_6" function="internal">
        <lane id=":113_6_0" index="0" speed="13.89" length="3.60" shape="450.35,123.29 446.75,123.25"/>
    </edge>
    <edge id=":113_7" function="internal">
        <lane id=":113_7_0" index="0" speed="3.65" length="1.44" shape="450.35,123.29 449.06,122.66"/>
    </edge>
    <edge id=":113_16" function="internal">
        <lane id=":113_16_0" index="0" speed="13.89" length="15.10" shape="446.75,123.25 446.06,123.25 441.13,122.28 436.34,120.67 432.50,118.69"/>
    </edge>
    <edge id=":113_17" function="internal">
        <lane id=":113_17_0" index="0" speed="3.65" length="3.23" shape="449.06,122.66 448.55,121.92 448.84,121.07 449.92,120.12"/>
    </edge>
    <edge id=":113_8" function="internal">
        <lane id=":113_8_0" index="0" speed="13.89" length="16.45" shape="434.27,116.03 437.78,117.93 441.80,119.37 445.97,120.16 449.92,120.12"/>
    </edge>
    <edge id=":113_9" function="internal">
        <lane id=":113_9_0" index="0" speed="13.89" length="18.85" shape="434.27,116.03 437.70,118.71 441.35,122.25 444.67,126.09 447.08,129.70"/>
    </edge>
    <edge id=":113_10" function="internal">
        <lane id=":113_10_0" index="0" speed="7.39" length="17.23" shape="434.27,116.03 438.22,119.47 439.34,122.66 437.64,125.57 433.12,128.22"/>
    </edge>
    <edge id=":113_11" function="internal">
        <lane id=":113_11_0" index="0" speed="3.65" length="4.67" shape="434.27,116.03 434.83,117.36 434.71,118.25 433.94,118.69 432.50,118.69"/>
    </edge>
    <edge id=":113_12" function="internal">
        <lane id=":113_12_0" index="0" speed="5.61" length="9.31" shape="431.87,125.27 434.31,123.84 435.23,122.27 434.63,120.55 432.50,118.69"/>
    </edge>
    <edge id=":113_13" function="internal">
        <lane id=":113_13_0" index="0" speed="13.89" length="18.80" shape="431.87,125.27 435.94,123.74 440.76,122.22 445.66,120.94 449.92,120.12"/>
    </edge>
    <edge id=":113_14" function="internal">
        <lane id=":113_14_0" index="0" speed="9.17" length="5.75" shape="431.87,125.27 436.75,123.88 437.43,123.93"/>
    </edge>
    <edge id=":113_15" function="internal">
        <lane id=":113_15_0" index="0" speed="3.65" length="1.44" shape="431.87,125.27 433.29,125.54"/>
    </edge>
    <edge id=":113_18" function="internal">
        <lane id=":113_18_0" index="0" speed="9.17" length="11.96" shape="437.43,123.93 440.92,124.16 444.36,126.10 447.08,129.70"/>
    </edge>
    <edge id=":113_19" function="internal">
        <lane id=":113_19_0" index="0" speed="3.65" length="3.23" shape="433.29,125.54 433.97,126.12 433.91,127.02 433.12,128.22"/>
    </edge>
    <edge id=":117_0" function="internal">
        <lane id=":117_0_0" index="0" speed="5.49" length="9.65" shape="715.08,1041.01 713.12,1038.66 711.46,1038.05 710.11,1039.19 709.07,1042.07"/>
    </edge>
    <edge id=":117_1" function="internal">
        <lane id=":117_1_0" index="0" speed="13.89" length="16.81" shape="715.08,1041.01 705.73,1027.04"/>
    </edge>
    <edge id=":117_2" function="internal">
        <lane id=":117_2_0" index="0" speed="3.65" length="1.44" shape="715.08,1041.01 715.09,1039.57"/>
    </edge>
    <edge id=":117_9" function="internal">
        <lane id=":117_9_0" index="0" speed="3.65" length="3.23" shape="715.09,1039.57 715.54,1038.79 716.43,1038.69 717.76,1039.25"/>
    </edge>
    <edge id=":117_3" function="internal">
        <lane id=":117_3_0" index="0" speed="13.89" length="16.89" shape="708.36,1025.22 717.76,1039.25"/>
    </edge>
    <edge id=":117_4" function="internal">
        <lane id=":117_4_0" index="0" speed="13.00" length="3.63" shape="708.36,1025.22 709.72,1028.16 709.77,1028.55"/>
    </edge>
    <edge id=":117_5" function="internal">
        <lane id=":117_5_0" index="0" speed="3.65" length="1.44" shape="708.36,1025.22 708.38,1026.66"/>
    </edge>
    <edge id=":117_10" function="internal">
        <lane id=":117_10_0" index="0" speed="13.00" length="13.66" shape="709.77,1028.55 710.29,1031.95 710.07,1036.59 709.07,1042.07"/>
    </edge>
    <edge id=":117_11" function="internal">
        <lane id=":117_11_0" index="0" speed="3.65" length="3.23" shape="708.38,1026.66 707.96,1027.45 707.07,1027.57 705.73,1027.04"/>
    </edge>
    <edge id=":117_6" function="internal">
        <lane id=":117_6_0" index="0" speed="11.98" length="14.62" shape="705.96,1041.34 706.87,1036.53 707.13,1032.55 706.75,1029.39 705.73,1027.04"/>
    </edge>
    <edge id=":117_7" function="internal">
        <lane id=":117_7_0" index="0" speed="7.41" length="18.95" shape="705.96,1041.34 708.00,1035.68 710.65,1033.45 713.90,1034.64 717.76,1039.25"/>
    </edge>
    <edge id=":117_8" function="internal">
        <lane id=":117_8_0" index="0" speed="3.65" length="4.67" shape="705.96,1041.34 707.01,1040.35 707.88,1040.15 708.57,1040.72 709.07,1042.07"/>
    </edge>
    <edge id=":131_0" function="internal">
        <lane id=":131_0_0" index="0" speed="3.65" length="4.67" shape="698.82,1080.47 698.51,1081.88 697.91,1082.55 697.02,1082.47 695.84,1081.64"/>
    </edge>
    <edge id=":133_0" function="internal">
        <lane id=":133_0_0" index="0" speed="11.43" length="15.61" shape="683.14,1169.52 680.68,1165.92 677.85,1163.22 674.65,1161.43 671.09,1160.54"/>
    </edge>
    <edge id=":133_1" function="internal">
        <lane id=":133_1_0" index="0" speed="13.89" length="29.47" shape="683.14,1169.52 680.88,1163.98 678.24,1155.67 675.88,1147.26 674.48,1141.40"/>
    </edge>
    <edge id=":133_2" function="internal">
        <lane id=":133_2_0" index="0" speed="13.89" length="28.80" shape="683.14,1169.52 681.83,1163.90 681.43,1155.42 681.70,1146.84 682.41,1140.93"/>
    </edge>
    <edge id=":133_3" function="internal">
        <lane id=":133_3_0" index="0" speed="7.38" length="17.45" shape="683.14,1169.52 681.13,1164.58 681.57,1161.22 684.46,1159.46 689.80,1159.28"/>
    </edge>
    <edge id=":133_4" function="internal">
        <lane id=":133_4_0" index="0" speed="3.65" length="4.67" shape="683.14,1169.52 683.25,1168.09 683.75,1167.35 684.64,1167.30 685.93,1167.95"/>
    </edge>
    <edge id=":133_5" function="internal">
        <lane id=":133_5_0" index="0" speed="5.59" length="9.35" shape="689.49,1162.47 686.64,1162.56 685.09,1163.51 684.85,1165.30 685.93,1167.95"/>
    </edge>
    <edge id=":133_6" function="internal">
        <lane id=":133_6_0" index="0" speed="13.89" length="18.50" shape="689.49,1162.47 671.09,1160.54"/>
    </edge>
    <edge id=":133_7" function="internal">
        <lane id=":133_7_0" index="0" speed="12.34" length="3.35" shape="689.49,1162.47 686.31,1161.41"/>
    </edge>
    <edge id=":133_8" function="internal">
        <lane id=":133_8_0" index="0" speed="10.24" length="3.06" shape="689.49,1162.47 686.61,1161.44"/>
    </edge>
    <edge id=":133_9" function="internal">
        <lane id=":133_9_0" index="0" speed="3.65" length="1.44" shape="689.49,1162.47 688.38,1161.56"/>
    </edge>
    <edge id=":133_25" function="internal">
        <lane id=":133_25_0" index="0" speed="12.34" length="24.32" shape="686.31,1161.41 684.33,1160.75 680.10,1156.67 676.82,1150.22 674.48,1141.40"/>
    </edge>
    <edge id=":133_26" function="internal">
        <lane id=":133_26_0" index="0" speed="10.24" length="23.36" shape="686.61,1161.44 683.79,1160.43 681.14,1155.94 680.90,1149.33 682.41,1140.93"/>
    </edge>
    <edge id=":133_27" function="internal">
        <lane id=":133_27_0" index="0" speed="3.65" length="3.23" shape="688.38,1161.56 688.05,1160.72 688.53,1159.97 689.80,1159.28"/>
    </edge>
    <edge id=":133_10" function="internal">
        <lane id=":133_10_0" index="0" speed="9.06" length="20.43" shape="685.53,1141.67 684.30,1149.08 684.60,1154.49 686.44,1157.89 689.80,1159.28"/>
    </edge>
    <edge id=":133_11" function="internal">
        <lane id=":133_11_0" index="0" speed="13.89" length="26.50" shape="685.53,1141.67 684.76,1147.21 684.38,1155.00 684.67,1162.69 685.93,1167.95"/>
    </edge>
    <edge id=":133_12" function="internal">
        <lane id=":133_12_0" index="0" speed="11.10" length="25.76" shape="685.53,1141.67 682.85,1150.35 679.55,1156.39 675.63,1159.79 671.09,1160.54"/>
    </edge>
    <edge id=":133_13" function="internal">
        <lane id=":133_13_0" index="0" speed="6.19" length="15.18" shape="685.53,1141.67 683.36,1144.99 679.90,1146.04 676.48,1144.83 674.48,1141.40"/>
    </edge>
    <edge id=":133_14" function="internal">
        <lane id=":133_14_0" index="0" speed="3.65" length="4.67" shape="685.53,1141.67 684.47,1142.65 683.60,1142.85 682.91,1142.28 682.41,1140.93"/>
    </edge>
    <edge id=":133_15" function="internal">
        <lane id=":133_15_0" index="0" speed="5.69" length="12.52" shape="677.63,1140.82 678.72,1145.09 679.88,1146.53 681.11,1145.14 682.41,1140.93"/>
    </edge>
    <edge id=":133_16" function="internal">
        <lane id=":133_16_0" index="0" speed="11.41" length="23.56" shape="677.63,1140.82 679.62,1148.58 682.31,1154.24 685.71,1157.81 689.80,1159.28"/>
    </edge>
    <edge id=":133_17" function="internal">
        <lane id=":133_17_0" index="0" speed="13.89" length="28.42" shape="677.63,1140.82 678.97,1146.52 681.20,1154.59 683.73,1162.57 685.93,1167.95"/>
    </edge>
    <edge id=":133_18" function="internal">
        <lane id=":133_18_0" index="0" speed="9.38" length="24.46" shape="677.63,1140.82 678.72,1148.83 678.42,1155.32 676.08,1159.48 671.09,1160.54"/>
    </edge>
    <edge id=":133_19" function="internal">
        <lane id=":133_19_0" index="0" speed="3.65" length="4.67" shape="677.63,1140.82 677.06,1142.14 676.35,1142.68 675.49,1142.44 674.48,1141.40"/>
    </edge>
    <edge id=":133_20" function="internal">
        <lane id=":133_20_0" index="0" speed="8.16" length="18.18" shape="671.47,1157.36 673.95,1156.63 675.28,1153.73 675.46,1148.65 674.48,1141.40"/>
    </edge>
    <edge id=":133_21" function="internal">
        <lane id=":133_21_0" index="0" speed="10.09" length="21.15" shape="671.47,1157.36 674.73,1156.64 677.64,1153.66 680.20,1148.42 682.41,1140.93"/>
    </edge>
    <edge id=":133_22" function="internal">
        <lane id=":133_22_0" index="0" speed="13.89" length="18.43" shape="671.47,1157.36 689.80,1159.28"/>
    </edge>
    <edge id=":133_23" function="internal">
        <lane id=":133_23_0" index="0" speed="12.45" length="4.63" shape="671.47,1157.36 675.78,1158.42 675.95,1158.52"/>
    </edge>
    <edge id=":133_24" function="internal">
        <lane id=":133_24_0" index="0" speed="3.65" length="1.44" shape="671.47,1157.36 672.56,1158.30"/>
    </edge>
    <edge id=":133_28" function="internal">
        <lane id=":133_28_0" index="0" speed="12.45" length="13.99" shape="675.95,1158.52 679.63,1160.54 683.01,1163.72 685.93,1167.95"/>
    </edge>
    <edge id=":133_29" function="internal">
        <lane id=":133_29_0" index="0" speed="3.65" length="3.23" shape="672.56,1158.30 672.87,1159.14 672.38,1159.89 671.09,1160.54"/>
    </edge>
    <edge id=":14_0" function="internal">
        <lane id=":14_0_0" index="0" speed="13.89" length="25.38" shape="460.53,1000.22 455.44,1001.92 448.34,1003.74 441.17,1005.23 435.85,1005.95"/>
    </edge>
    <edge id=":14_1" function="internal">