<?xml version="1.0" encoding="UTF-8"?>

<!-- generated on 2024-05-09 13:47:20 by Eclipse SUMO netgenerate Version 1.19.0
<configuration xmlns:xsi="http://www.w3.org/2001/XMLSchema-instance" xsi:noNamespaceSchemaLocation="http://sumo.dlr.de/xsd/netgenerateConfiguration.xsd">

    <random_network>
        <rand value="true"/>
        <rand.iterations value="20"/>
    </random_network>

    <output>
        <output-file value="Rand.net.xml"/>
    </output>

</configuration>
-->

<net version="1.16" junctionCornerDetail="5" limitTurnSpeed="5.50" xmlns:xsi="http://www.w3.org/2001/XMLSchema-instance" xsi:noNamespaceSchemaLocation="http://sumo.dlr.de/xsd/net_file.xsd">

    <location netOffset="230.76,565.34" convBoundary="0.00,0.00,751.66,878.95" origBoundary="-230.76,-565.34,520.90,313.61" projParameter="!"/>

    <edge id=":1_0" function="internal">
        <lane id=":1_0_0" index="0" speed="5.98" length="9.08" shape="229.29,573.63 228.89,571.06 227.76,569.49 225.91,568.91 223.34,569.32"/>
    </edge>
    <edge id=":1_1" function="internal">
        <lane id=":1_1_0" index="0" speed="13.89" length="14.86" shape="229.29,573.63 229.16,569.91 228.84,566.22 228.32,562.56 227.57,558.91"/>
    </edge>
    <edge id=":1_2" function="internal">
        <lane id=":1_2_0" index="0" speed="8.09" length="4.36" shape="229.29,573.63 229.79,569.30"/>
    </edge>
    <edge id=":1_3" function="internal">
        <lane id=":1_3_0" index="0" speed="3.65" length="1.44" shape="229.29,573.63 230.07,572.42"/>
    </edge>
    <edge id=":1_16" function="internal">
        <lane id=":1_16_0" index="0" speed="8.09" length="10.76" shape="229.79,569.30 231.44,566.25 234.24,564.49 238.20,564.02"/>
    </edge>
    <edge id=":1_17" function="internal">
        <lane id=":1_17_0" index="0" speed="3.65" length="3.23" shape="230.07,572.42 230.87,572.01 231.67,572.40 232.49,573.58"/>
    </edge>
    <edge id=":1_4" function="internal">
        <lane id=":1_4_0" index="0" speed="6.62" length="9.76" shape="238.07,567.22 235.59,567.53 233.84,568.70 232.80,570.72 232.49,573.58"/>
    </edge>
    <edge id=":1_5" function="internal">
        <lane id=":1_5_0" index="0" speed="13.89" length="14.95" shape="238.07,567.22 234.33,567.26 230.62,567.64 226.95,568.34 223.34,569.32"/>
    </edge>
    <edge id=":1_6" function="internal">
        <lane id=":1_6_0" index="0" speed="9.03" length="14.51" shape="238.07,567.22 234.20,566.57 231.16,564.98 228.95,562.42 227.57,558.91"/>
    </edge>
    <edge id=":1_7" function="internal">
        <lane id=":1_7_0" index="0" speed="3.65" length="4.67" shape="238.07,567.22 236.91,566.37 236.54,565.56 236.97,564.77 238.20,564.02"/>
    </edge>
    <edge id=":1_8" function="internal">
        <lane id=":1_8_0" index="0" speed="7.70" length="10.32" shape="230.69,558.16 231.66,560.64 233.24,562.44 235.42,563.56 238.20,564.02"/>
    </edge>
    <edge id=":1_9" function="internal">
        <lane id=":1_9_0" index="0" speed="13.89" length="15.56" shape="230.69,558.16 231.45,561.92 232.00,565.82 232.34,569.75 232.49,573.58"/>
    </edge>
    <edge id=":1_10" function="internal">
        <lane id=":1_10_0" index="0" speed="8.41" length="4.08" shape="230.69,558.16 230.97,561.96 230.88,562.21"/>
    </edge>
    <edge id=":1_11" function="internal">
        <lane id=":1_11_0" index="0" speed="3.65" length="1.44" shape="230.69,558.16 230.19,559.51"/>
    </edge>
    <edge id=":1_18" function="internal">
        <lane id=":1_18_0" index="0" speed="8.41" length="10.92" shape="230.88,562.21 229.84,565.08 227.30,567.53 223.34,569.32"/>
    </edge>
    <edge id=":1_19" function="internal">
        <lane id=":1_19_0" index="0" speed="3.65" length="3.23" shape="230.19,559.51 229.50,560.09 228.63,559.89 227.57,558.91"/>
    </edge>
    <edge id=":1_12" function="internal">
        <lane id=":1_12_0" index="0" speed="7.00" length="10.09" shape="222.39,566.26 225.14,565.05 226.92,563.42 227.73,561.37 227.57,558.91"/>
    </edge>
    <edge id=":1_13" function="internal">
        <lane id=":1_13_0" index="0" speed="13.89" length="16.03" shape="222.39,566.26 226.17,565.26 230.21,564.51 234.29,564.08 238.20,564.02"/>
    </edge>
    <edge id=":1_14" function="internal">
        <lane id=":1_14_0" index="0" speed="7.59" length="15.41" shape="222.39,566.26 226.75,565.56 229.89,566.55 231.80,569.22 232.49,573.58"/>
    </edge>
    <edge id=":1_15" function="internal">
        <lane id=":1_15_0" index="0" speed="3.65" length="4.67" shape="222.39,566.26 223.77,566.67 224.39,567.32 224.25,568.20 223.34,569.32"/>
    </edge>
    <edge id=":10_0" function="internal">
        <lane id=":10_0_0" index="0" speed="3.65" length="4.67" shape="68.95,617.23 67.56,616.82 66.95,616.17 67.09,615.29 68.00,614.17"/>
    </edge>
    <edge id=":115_0" function="internal">
        <lane id=":115_0_0" index="0" speed="6.12" length="10.09" shape="395.84,246.28 398.59,247.30 400.00,248.87 400.07,250.98 398.79,253.63"/>
    </edge>
    <edge id=":115_1" function="internal">
        <lane id=":115_1_0" index="0" speed="3.93" length="3.36" shape="396.13,251.85 396.56,250.97 396.53,250.26 396.06,249.74 395.15,249.40"/>
    </edge>
    <edge id=":118_0" function="internal">
        <lane id=":118_0_0" index="0" speed="3.65" length="4.67" shape="0.53,244.63 -0.87,244.27 -1.51,243.65 -1.40,242.76 -0.53,241.61"/>
    </edge>
    <edge id=":12_0" function="internal">
        <lane id=":12_0_0" index="0" speed="13.89" length="19.16" shape="310.29,398.24 307.28,395.06 303.22,391.85 298.84,389.04 294.89,387.08"/>
    </edge>
    <edge id=":12_1" function="internal">
        <lane id=":12_1_0" index="0" speed="13.89" length="20.94" shape="310.29,398.24 307.74,394.32 304.92,389.26 302.32,384.08 300.44,379.79"/>
    </edge>
    <edge id=":12_2" function="internal">
        <lane id=":12_2_0" index="0" speed="10.88" length="5.51" shape="310.29,398.24 307.98,393.91 307.89,393.31"/>
    </edge>
    <edge id=":12_3" function="internal">
        <lane id=":12_3_0" index="0" speed="7.68" length="5.06" shape="310.29,398.24 308.01,393.88 308.02,393.73"/>
    </edge>
    <edge id=":12_4" function="internal">
        <lane id=":12_4_0" index="0" speed="3.65" length="1.44" shape="310.29,398.24 310.21,396.79"/>
    </edge>
    <edge id=":12_25" function="internal">
        <lane id=":12_25_0" index="0" speed="10.88" length="14.52" shape="307.89,393.31 307.31,389.36 308.28,384.58 310.88,379.57"/>
    </edge>
    <edge id=":12_26" function="internal">
        <lane id=":12_26_0" index="0" speed="7.68" length="12.84" shape="308.02,393.73 308.34,390.49 311.28,388.05 316.84,386.56"/>
    </edge>
    <edge id=":12_27" function="internal">
        <lane id=":12_27_0" index="0" speed="3.65" length="3.23" shape="310.21,396.79 310.62,396.00 311.50,395.84 312.86,396.33"/>
    </edge>
    <edge id=":12_5" function="internal">
        <lane id=":12_5_0" index="0" speed="6.05" length="10.54" shape="317.31,389.73 313.87,390.61 311.98,392.00 311.64,393.90 312.86,396.33"/>
    </edge>
    <edge id=":12_6" function="internal">
        <lane id=":12_6_0" index="0" speed="13.89" length="22.69" shape="317.31,389.73 312.37,389.88 305.99,389.37 299.66,388.38 294.89,387.08"/>
    </edge>
    <edge id=":12_7" function="internal">
        <lane id=":12_7_0" index="0" speed="10.61" length="21.40" shape="317.31,389.73 311.62,389.79 306.92,388.15 303.19,384.82 300.44,379.79"/>
    </edge>
    <edge id=":12_8" function="internal">
        <lane id=":12_8_0" index="0" speed="7.40" length="18.69" shape="317.31,389.73 311.41,389.90 308.38,388.26 308.20,384.82 310.88,379.57"/>
    </edge>
    <edge id=":12_9" function="internal">
        <lane id=":12_9_0" index="0" speed="3.65" length="4.67" shape="317.31,389.73 316.00,389.11 315.49,388.38 315.77,387.53 316.84,386.56"/>
    </edge>
    <edge id=":12_10" function="internal">
        <lane id=":12_10_0" index="0" speed="5.50" length="9.60" shape="313.54,381.35 312.17,384.04 312.26,385.81 313.82,386.65 316.84,386.56"/>
    </edge>
    <edge id=":12_11" function="internal">
        <lane id=":12_11_0" index="0" speed="9.79" length="16.07" shape="313.54,381.35 311.40,385.42 310.58,389.28 311.06,392.91 312.86,396.33"/>
    </edge>
    <edge id=":12_12" function="internal">
        <lane id=":12_12_0" index="0" speed="10.55" length="21.36" shape="313.54,381.35 309.78,385.60 305.41,387.98 300.45,388.47 294.89,387.08"/>
    </edge>
    <edge id=":12_13" function="internal">
        <lane id=":12_13_0" index="0" speed="7.65" length="18.93" shape="313.54,381.35 309.75,385.71 306.30,386.90 303.20,384.93 300.44,379.79"/>
    </edge>
    <edge id=":12_14" function="internal">
        <lane id=":12_14_0" index="0" speed="3.65" length="4.67" shape="313.54,381.35 312.21,381.90 311.32,381.79 310.88,381.01 310.88,379.57"/>
    </edge>
    <edge id=":12_15" function="internal">
        <lane id=":12_15_0" index="0" speed="5.93" length="10.77" shape="303.43,378.64 305.00,381.58 306.77,382.71 308.73,382.04 310.88,379.57"/>
    </edge>
    <edge id=":12_16" function="internal">
        <lane id=":12_16_0" index="0" speed="9.51" length="17.03" shape="303.43,378.64 305.62,382.65 308.58,385.30 312.32,386.61 316.84,386.56"/>
    </edge>
    <edge id=":12_17" function="internal">
        <lane id=":12_17_0" index="0" speed="13.89" length="20.08" shape="303.43,378.64 305.24,382.81 307.70,387.73 310.38,392.53 312.86,396.33"/>
    </edge>
    <edge id=":12_18" function="internal">
        <lane id=":12_18_0" index="0" speed="7.40" length="4.41" shape="303.43,378.64 304.53,382.92"/>
    </edge>
    <edge id=":12_19" function="internal">
        <lane id=":12_19_0" index="0" speed="3.65" length="1.44" shape="303.43,378.64 303.12,380.05"/>
    </edge>
    <edge id=":12_28" function="internal">
        <lane id=":12_28_0" index="0" speed="7.40" length="14.40" shape="304.53,382.92 304.91,384.41 303.98,387.74 300.64,388.63 294.89,387.08"/>
    </edge>
    <edge id=":12_29" function="internal">
        <lane id=":12_29_0" index="0" speed="3.65" length="3.23" shape="303.12,380.05 302.51,380.71 301.62,380.62 300.44,379.79"/>
    </edge>
    <edge id=":12_20" function="internal">
        <lane id=":12_20_0" index="0" speed="5.49" length="9.62" shape="296.08,384.11 299.02,384.90 300.73,384.44 301.20,382.74 300.44,379.79"/>
    </edge>
    <edge id=":12_21" function="internal">
        <lane id=":12_21_0" index="0" speed="9.45" length="16.95" shape="296.08,384.11 300.49,385.21 304.43,384.82 307.89,382.94 310.88,379.57"/>
    </edge>
    <edge id=":12_22" function="internal">
        <lane id=":12_22_0" index="0" speed="13.89" length="21.03" shape="296.08,384.11 300.59,385.37 306.35,386.30 312.16,386.75 316.84,386.56"/>
    </edge>
    <edge id=":12_23" function="internal">
        <lane id=":12_23_0" index="0" speed="13.89" length="20.90" shape="296.08,384.11 300.24,386.23 305.09,389.40 309.63,392.98 312.86,396.33"/>
    </edge>
    <edge id=":12_24" function="internal">
        <lane id=":12_24_0" index="0" speed="3.65" length="4.67" shape="296.08,384.11 296.90,385.29 296.97,386.18 296.31,386.78 294.89,387.08"/>
    </edge>
    <edge id=":122_0" function="internal">
        <lane id=":122_0_0" index="0" speed="3.65" length="4.67" shape="671.26,353.11 672.40,352.23 673.28,352.11 673.91,352.74 674.29,354.13"/>
    </edge>
    <edge id=":124_0" function="internal">
        <lane id=":124_0_0" index="0" speed="6.08" length="8.99" shape="750.11,632.37 751.58,634.45 751.90,636.38 751.08,638.15 749.12,639.77"/>
    </edge>
    <edge id=":124_1" function="internal">
        <lane id=":124_1_0" index="0" speed="3.91" length="3.00" shape="747.45,637.03 748.11,636.49 748.38,635.90 748.27,635.26 747.79,634.57"/>
    </edge>
    <edge id=":127_0" function="internal">
        <lane id=":127_0_0" index="0" speed="3.65" length="4.67" shape="577.25,867.08 576.63,868.39 575.90,868.91 575.05,868.63 574.08,867.57"/>
    </edge>
    <edge id=":137_0" function="internal">
        <lane id=":137_0_0" index="0" speed="3.65" length="4.67" shape="379.56,880.26 378.11,880.29 377.33,879.86 377.20,878.97 377.73,877.63"/>
    </edge>
    <edge id=":14_0" function="internal">
        <lane id=":14_0_0" index="0" speed="7.36" length="11.12" shape="118.47,211.82 116.74,208.76 114.77,206.83 112.55,206.03 110.09,206.37"/>
    </edge>
    <edge id=":14_1" function="internal">
        <lane id=":14_1_0" index="0" speed="7.41" length="16.65" shape="118.47,211.82 117.08,207.04 117.81,203.77 120.66,202.01 125.63,201.77"/>
    </edge>
    <edge id=":14_2" function="internal">
        <lane id=":14_2_0" index="0" speed="3.65" length="4.67" shape="118.47,211.82 118.72,210.39 119.29,209.70 120.18,209.75 121.40,210.52"/>
    </edge>
    <edge id=":14_3" function="internal">
        <lane id=":14_3_0" index="0" speed="5.69" length="9.22" shape="125.36,204.96 122.61,205.09 121.03,206.06 120.63,207.87 121.40,210.52"/>
    </edge>
    <edge id=":14_4" function="internal">
        <lane id=":14_4_0" index="0" speed="13.89" length="15.44" shape="125.36,204.96 121.54,204.77 117.63,204.89 113.77,205.39 110.09,206.37"/>
    </edge>
    <edge id=":14_5" function="internal">
        <lane id=":14_5_0" index="0" speed="3.65" length="1.44" shape="125.36,204.96 124.24,204.06"/>
    </edge>
    <edge id=":14_9" function="internal">
        <lane id=":14_9_0" index="0" speed="3.65" length="3.23" shape="124.24,204.06 123.90,203.23 124.37,202.47 125.63,201.77"/>
    </edge>
    <edge id=":14_6" function="internal">
        <lane id=":14_6_0" index="0" speed="13.89" length="16.77" shape="109.04,203.35 112.92,202.35 117.24,201.78 121.60,201.61 125.63,201.77"/>
    </edge>
    <edge id=":14_7" function="internal">
        <lane id=":14_7_0" index="0" speed="8.71" length="4.22" shape="109.04,203.35 112.79,202.75 113.19,202.87"/>
    </edge>
    <edge id=":14_8" function="internal">
        <lane id=":14_8_0" index="0" speed="3.65" length="1.44" shape="109.04,203.35 110.43,203.71"/>
    </edge>
    <edge id=":14_10" function="internal">
        <lane id=":14_10_0" index="0" speed="8.71" length="11.74" shape="113.19,202.87 116.10,203.75 118.97,206.34 121.40,210.52"/>
    </edge>
    <edge id=":14_11" function="internal">
        <lane id=":14_11_0" index="0" speed="3.65" length="3.23" shape="110.43,203.71 111.07,204.33 110.96,205.22 110.09,206.37"/>
    </edge>
    <edge id=":18_0" function="internal">
        <lane id=":18_0_0" index="0" speed="8.64" length="11.94" shape="626.35,506.07 624.34,504.65 621.79,504.08 618.72,504.36 615.12,505.49"/>
    </edge>
    <edge id=":18_1" function="internal">
        <lane id=":18_1_0" index="0" speed="13.89" length="15.38" shape="626.35,506.07 623.67,503.37 620.81,500.74 617.87,498.21 614.94,495.78"/>
    </edge>
    <edge id=":18_2" function="internal">
        <lane id=":18_2_0" index="0" speed="10.29" length="3.55" shape="626.35,506.07 624.40,503.23 624.37,503.13"/>
    </edge>
    <edge id=":18_3" function="internal">
        <lane id=":18_3_0" index="0" speed="3.65" length="1.44" shape="626.35,506.07 626.11,504.65"/>
    </edge>
    <edge id=":18_16" function="internal">
        <lane id=":18_16_0" index="0" speed="10.29" length="11.57" shape="624.37,503.13 623.44,499.91 623.47,496.10 624.50,491.81"/>
    </edge>
    <edge id=":18_17" function="internal">
        <lane id=":18_17_0" index="0" speed="3.65" length="3.23" shape="626.11,504.65 626.42,503.81 627.27,503.55 628.68,503.87"/>
    </edge>
    <edge id=":18_4" function="internal">
        <lane id=":18_4_0" index="0" speed="9.09" length="11.66" shape="627.53,492.84 626.69,496.24 626.60,499.22 627.26,501.76 628.68,503.87"/>
    </edge>
    <edge id=":18_5" function="internal">
        <lane id=":18_5_0" index="0" speed="13.11" length="18.30" shape="627.53,492.84 625.64,496.95 622.94,500.43 619.43,503.27 615.12,505.49"/>
    </edge>
    <edge id=":18_6" function="internal">
        <lane id=":18_6_0" index="0" speed="7.65" length="16.38" shape="627.53,492.84 625.44,496.90 622.64,498.74 619.14,498.37 614.94,495.78"/>
    </edge>
    <edge id=":18_7" function="internal">
        <lane id=":18_7_0" index="0" speed="3.65" length="4.67" shape="627.53,492.84 626.39,493.72 625.51,493.84 624.88,493.21 624.50,491.81"/>
    </edge>
    <edge id=":18_8" function="internal">
        <lane id=":18_8_0" index="0" speed="6.04" length="9.72" shape="616.95,493.29 619.50,494.89 621.61,495.17 623.27,494.15 624.50,491.81"/>
    </edge>
    <edge id=":18_9" function="internal">
        <lane id=":18_9_0" index="0" speed="13.89" length="15.80" shape="616.95,493.29 619.94,495.77 622.98,498.40 625.94,501.13 628.68,503.87"/>
    </edge>
    <edge id=":18_10" function="internal">
        <lane id=":18_10_0" index="0" speed="7.41" length="4.99" shape="616.95,493.29 620.38,496.93"/>
    </edge>
    <edge id=":18_11" function="internal">
        <lane id=":18_11_0" index="0" speed="3.65" length="1.44" shape="616.95,493.29 617.38,494.67"/>
    </edge>
    <edge id=":18_18" function="internal">
        <lane id=":18_18_0" index="0" speed="7.41" length="11.69" shape="620.38,496.93 621.21,500.17 619.46,503.02 615.12,505.49"/>
    </edge>
    <edge id=":18_19" function="internal">
        <lane id=":18_19_0" index="0" speed="3.65" length="3.23" shape="617.38,494.67 617.19,495.55 616.37,495.91 614.94,495.78"/>
    </edge>
    <edge id=":18_12" function="internal">
        <lane id=":18_12_0" index="0" speed="5.69" length="9.22" shape="613.92,502.52 616.32,501.16 617.29,499.58 616.83,497.79 614.94,495.78"/>
    </edge>
    <edge id=":18_13" function="internal">
        <lane id=":18_13_0" index="0" speed="12.11" length="15.54" shape="613.92,502.52 617.61,500.63 620.60,498.22 622.90,495.28 624.50,491.81"/>
    </edge>
    <edge id=":18_14" function="internal">
        <lane id=":18_14_0" index="0" speed="9.86" length="15.77" shape="613.92,502.52 618.50,501.13 622.49,500.89 625.88,501.81 628.68,503.87"/>
    </edge>
    <edge id=":18_15" function="internal">
        <lane id=":18_15_0" index="0" speed="3.65" length="4.67" shape="613.92,502.52 615.33,502.81 616.00,503.41 615.93,504.30 615.12,505.49"/>
    </edge>
    <edge id=":2_0" function="internal">
        <lane id=":2_0_0" index="0" speed="13.89" length="15.15" shape="177.03,348.41 176.13,344.74 175.13,341.07 173.98,337.45 172.60,333.94"/>
    </edge>
    <edge id=":2_1" function="internal">
        <lane id=":2_1_0" index="0" speed="7.38" length="5.11" shape="177.03,348.41 176.47,343.33"/>
    </edge>
    <edge id=":2_2" function="internal">
        <lane id=":2_2_0" index="0" speed="3.65" length="1.44" shape="177.03,348.41 177.53,347.06"/>
    </edge>
    <edge id=":2_9" function="internal">
        <lane id=":2_9_0" index="0" speed="7.38" length="12.40" shape="176.47,343.33 176.44,343.08 177.79,339.97 181.06,339.08 186.25,340.42"/>
    </edge>
    <edge id=":2_10" function="internal">
        <lane id=":2_10_0" index="0" speed="3.65" length="3.23" shape="177.53,347.06 178.21,346.48 179.08,346.68 180.14,347.66"/>
    </edge>
    <edge id=":2_3" function="internal">
        <lane id=":2_3_0" index="0" speed="5.58" length="9.36" shape="185.07,343.39 182.29,342.68 180.55,343.15 179.83,344.81 180.14,347.66"/>
    </edge>
    <edge id=":2_4" function="internal">
        <lane id=":2_4_0" index="0" speed="13.26" length="15.99" shape="185.07,343.39 181.45,341.78 177.85,339.69 174.75,337.09 172.60,333.94"/>
    </edge>
    <edge id=":2_5" function="internal">
        <lane id=":2_5_0" index="0" speed="3.65" length="4.67" shape="185.07,343.39 184.25,342.20 184.17,341.31 184.84,340.72 186.25,340.42"/>
    </edge>
    <edge id=":2_6" function="internal">
        <lane id=":2_6_0" index="0" speed="12.27" length="13.63" shape="175.52,332.64 177.40,335.53 179.91,337.55 182.90,339.07 186.25,340.42"/>
    </edge>
    <edge id=":2_7" function="internal">
        <lane id=":2_7_0" index="0" speed="13.89" length="15.73" shape="175.52,332.64 176.93,336.24 178.15,340.04 179.21,343.91 180.14,347.66"/>
    </edge>
    <edge id=":2_8" function="internal">
        <lane id=":2_8_0" index="0" speed="3.65" length="1.44" shape="175.52,332.64 175.28,334.07"/>
    </edge>
    <edge id=":2_11" function="internal">
        <lane id=":2_11_0" index="0" speed="3.65" length="3.23" shape="175.28,334.07 174.71,334.76 173.81,334.71 172.60,333.94"/>
    </edge>
    <edge id=":209_0" function="internal">
        <lane id=":209_0_0" index="0" speed="3.65" length="4.67" shape="689.78,822.67 690.46,823.95 690.44,824.84 689.71,825.36 688.27,825.49"/>
    </edge>
    <edge id=":24_0" function="internal">
        <lane id=":24_0_0" index="0" speed="5.99" length="10.09" shape="558.41,764.50 557.55,761.34 556.17,759.63 554.27,759.35 551.83,760.50"/>
    </edge>
    <edge id=":24_1" function="internal">
        <lane id=":24_1_0" index="0" speed="13.89" length="16.58" shape="558.41,764.50 557.66,760.56 556.55,756.39 555.07,752.37 553.23,748.85"/>
    </edge>
    <edge id=":24_2" function="internal">
        <lane id=":24_2_0" index="0" speed="11.07" length="19.63" shape="558.41,764.50 558.22,759.19 559.39,754.61 561.91,750.75 565.79,747.62"/>
    </edge>
    <edge id=":24_3" function="internal">
        <lane id=":24_3_0" index="0" speed="7.38" length="17.77" shape="558.41,764.50 558.26,759.02 559.87,756.02 563.23,755.51 568.34,757.48"/>
    </edge>
    <edge id=":24_4" function="internal">
        <lane id=":24_4_0" index="0" speed="3.65" length="4.67" shape="558.41,764.50 559.02,763.19 559.75,762.67 560.60,762.95 561.57,764.02"/>
    </edge>
    <edge id=":24_5" function="internal">
        <lane id=":24_5_0" index="0" speed="5.56" length="9.40" shape="566.83,760.30 564.12,759.26 562.34,759.53 561.49,761.11 561.57,764.02"/>
    </edge>
    <edge id=":24_6" function="internal">
        <lane id=":24_6_0" index="0" speed="10.41" length="15.83" shape="566.83,760.30 562.78,758.64 558.93,758.12 555.28,758.74 551.83,760.50"/>
    </edge>
    <edge id=":24_7" function="internal">
        <lane id=":24_7_0" index="0" speed="13.89" length="17.92" shape="566.83,760.30 563.23,758.11 559.39,755.26 555.87,752.08 553.23,748.85"/>
    </edge>
    <edge id=":24_8" function="internal">
        <lane id=":24_8_0" index="0" speed="7.51" length="17.41" shape="566.83,760.30 562.41,757.17 560.76,754.01 561.88,750.83 565.79,747.62"/>
    </edge>
    <edge id=":24_9" function="internal">
        <lane id=":24_9_0" index="0" speed="3.65" length="4.67" shape="566.83,760.30 566.15,759.03 566.18,758.14 566.91,757.62 568.34,757.48"/>
    </edge>
    <edge id=":24_10" function="internal">
        <lane id=":24_10_0" index="0" speed="5.81" length="9.81" shape="567.45,750.35 565.33,752.12 564.77,753.90 565.78,755.69 568.34,757.48"/>
    </edge>
    <edge id=":24_11" function="internal">
        <lane id=":24_11_0" index="0" speed="9.99" length="15.85" shape="567.45,750.35 564.35,752.87 562.34,755.99 561.41,759.70 561.57,764.02"/>
    </edge>
    <edge id=":24_12" function="internal">
        <lane id=":24_12_0" index="0" speed="13.89" length="18.62" shape="567.45,750.35 551.83,760.50"/>
    </edge>
    <edge id=":24_13" function="internal">
        <lane id=":24_13_0" index="0" speed="8.58" length="4.92" shape="567.45,750.35 562.99,752.43"/>
    </edge>
    <edge id=":24_14" function="internal">
        <lane id=":24_14_0" index="0" speed="3.65" length="1.44" shape="567.45,750.35 566.01,750.29"/>
    </edge>
    <edge id=":24_25" function="internal">
        <lane id=":24_25_0" index="0" speed="8.58" length="11.23" shape="562.99,752.43 559.13,752.88 555.88,751.68 553.23,748.85"/>
    </edge>
    <edge id=":24_26" function="internal">
        <lane id=":24_26_0" index="0" speed="3.65" length="3.23" shape="566.01,750.29 565.25,749.82 565.18,748.93 565.79,747.62"/>
    </edge>
    <edge id=":24_15" function="internal">
        <lane id=":24_15_0" index="0" speed="7.21" length="11.10" shape="555.92,747.12 557.66,748.90 559.89,749.58 562.60,749.15 565.79,747.62"/>
    </edge>
    <edge id=":24_16" function="internal">
        <lane id=":24_16_0" index="0" speed="13.89" length="16.32" shape="555.92,747.12 558.38,750.18 561.49,752.99 564.92,755.46 568.34,757.48"/>
    </edge>
    <edge id=":24_17" function="internal">
        <lane id=":24_17_0" index="0" speed="13.89" length="17.91" shape="555.92,747.12 557.84,750.84 559.48,755.29 560.75,759.88 561.57,764.02"/>
    </edge>
    <edge id=":24_18" function="internal">
        <lane id=":24_18_0" index="0" speed="8.52" length="15.79" shape="555.92,747.12 557.42,750.69 557.24,754.11 555.38,757.38 551.83,760.50"/>
    </edge>
    <edge id=":24_19" function="internal">
        <lane id=":24_19_0" index="0" speed="3.65" length="4.67" shape="555.92,747.12 555.89,748.56 555.44,749.33 554.55,749.42 553.23,748.85"/>
    </edge>
    <edge id=":24_20" function="internal">
        <lane id=":24_20_0" index="0" speed="7.14" length="10.78" shape="550.01,757.87 552.55,755.69 553.93,753.45 554.16,751.17 553.23,748.85"/>
    </edge>
    <edge id=":24_21" function="internal">
        <lane id=":24_21_0" index="0" speed="13.89" length="18.82" shape="550.01,757.87 565.79,747.62"/>
    </edge>
    <edge id=":24_22" function="internal">
        <lane id=":24_22_0" index="0" speed="11.46" length="5.25" shape="550.01,757.87 554.27,755.68 554.72,755.60"/>
    </edge>
    <edge id=":24_23" function="internal">
        <lane id=":24_23_0" index="0" speed="7.63" length="4.82" shape="550.01,757.87 554.34,755.75"/>
    </edge>
    <edge id=":24_24" function="internal">
        <lane id=":24_24_0" index="0" speed="3.65" length="1.44" shape="550.01,757.87 551.45,757.85"/>
    </edge>
    <edge id=":24_27" function="internal">
        <lane id=":24_27_0" index="0" speed="11.46" length="14.12" shape="554.72,755.60 558.75,754.89 563.44,755.49 568.34,757.48"/>
    </edge>
    <edge id=":24_28" function="internal">
        <lane id=":24_28_0" index="0" speed="7.63" length="12.44" shape="554.34,755.75 557.70,756.07 560.12,758.82 561.57,764.02"/>
    </edge>
    <edge id=":24_29" function="internal">
        <lane id=":24_29_0" index="0" speed="3.65" length="3.23" shape="551.45,757.85 552.24,758.28 552.36,759.16 551.83,760.50"/>
    </edge>
    <edge id=":318_0" function="internal">
        <lane id=":318_0_0" index="0" speed="3.65" length="4.67" shape="171.74,0.47 172.16,-0.92 172.81,-1.53 173.69,-1.38 174.80,-0.47"/>
    </edge>
    <edge id=":324_0" function="internal">
        <lane id=":324_0_0" index="0" speed="3.65" length="4.67" shape="368.89,127.00 370.33,127.03 371.10,127.49 371.19,128.38 370.62,129.70"/>
    </edge>
    <edge id=":37_0" function="internal">
        <lane id=":37_0_0" index="0" speed="10.02" length="14.97" shape="240.12,222.81 238.24,219.12 235.79,216.38 232.78,214.61 229.21,213.80"/>
    </edge>
    <edge id=":37_1" function="internal">
        <lane id=":37_1_0" index="0" speed="13.89" length="18.79" shape="240.12,222.81 233.97,205.06"/>
    </edge>
    <edge id=":37_2" function="internal">
        <lane id=":37_2_0" index="0" speed="10.35" length="5.15" shape="240.12,222.81 239.04,217.78"/>
    </edge>
    <edge id=":37_3" function="internal">
        <lane id=":37_3_0" index="0" speed="7.61" length="5.21" shape="240.12,222.81 238.99,217.73"/>
    </edge>
    <edge id=":37_4" function="internal">
        <lane id=":37_4_0" index="0" speed="3.65" length="1.44" shape="240.12,222.81 240.44,221.41"/>
    </edge>
    <edge id=":37_25" function="internal">
        <lane id=":37_25_0" index="0" speed="10.35" length="15.47" shape="239.04,217.78 239.82,213.18 242.48,209.01 247.01,205.28"/>
    </edge>
    <edge id=":37_26" function="internal">
        <lane id=":37_26_0" index="0" speed="7.61" length="13.24" shape="238.99,217.73 240.22,214.55 243.82,213.28 249.80,213.91"/>
    </edge>
    <edge id=":37_27" function="internal">
        <lane id=":37_27_0" index="0" speed="3.65" length="3.23" shape="240.44,221.41 241.04,220.75 241.93,220.83 243.11,221.67"/>
    </edge>
    <edge id=":37_5" function="internal">
        <lane id=":37_5_0" index="0" speed="5.91" length="10.52" shape="249.11,217.04 245.54,216.62 243.36,217.25 242.54,218.93 243.11,221.67"/>
    </edge>
    <edge id=":37_6" function="internal">
        <lane id=":37_6_0" index="0" speed="13.89" length="20.16" shape="249.11,217.04 244.64,216.13 239.20,215.17 233.74,214.33 229.21,213.80"/>
    </edge>
    <edge id=":37_7" function="internal">
        <lane id=":37_7_0" index="0" speed="12.02" length="20.25" shape="249.11,217.04 243.54,215.26 239.16,212.68 235.97,209.28 233.97,205.06"/>
    </edge>
    <edge id=":37_8" function="internal">
        <lane id=":37_8_0" index="0" speed="7.42" length="19.26" shape="249.11,217.04 243.29,215.04 241.00,212.42 242.24,209.17 247.01,205.28"/>
    </edge>
    <edge id=":37_9" function="internal">
        <lane id=":37_9_0" index="0" speed="3.65" length="4.67" shape="249.11,217.04 248.11,216.00 247.89,215.13 248.45,214.43 249.80,213.91"/>
    </edge>
    <edge id=":37_10" function="internal">
        <lane id=":37_10_0" index="0" speed="5.48" length="9.73" shape="248.74,207.98 246.33,209.94 245.71,211.58 246.86,212.90 249.80,213.91"/>
    </edge>
    <edge id=":37_11" function="internal">
        <lane id=":37_11_0" index="0" speed="9.22" length="16.20" shape="248.74,207.98 245.11,210.94 242.96,214.20 242.30,217.78 243.11,221.67"/>
    </edge>
    <edge id=":37_12" function="internal">
        <lane id=":37_12_0" index="0" speed="13.89" length="20.57" shape="248.74,207.98 244.62,210.09 239.27,212.06 233.78,213.45 229.21,213.80"/>
    </edge>
    <edge id=":37_13" function="internal">
        <lane id=":37_13_0" index="0" speed="8.26" length="18.37" shape="248.74,207.98 243.46,210.59 239.24,210.98 236.08,209.14 233.97,205.06"/>
    </edge>
    <edge id=":37_14" function="internal">
        <lane id=":37_14_0" index="0" speed="3.65" length="4.67" shape="248.74,207.98 247.30,207.95 246.53,207.49 246.43,206.61 247.01,205.28"/>
    </edge>