<?xml version="1.0" encoding="UTF-8"?>

<!-- generated on 2024-05-09 13:43:36 by Eclipse SUMO netgenerate Version 1.19.0
<configuration xmlns:xsi="http://www.w3.org/2001/XMLSchema-instance" xsi:noNamespaceSchemaLocation="http://sumo.dlr.de/xsd/netgenerateConfiguration.xsd">

    <spider_network>
        <spider value="true"/>
        <spider.arm-number value="4"/>
        <spider.circle-number value="3"/>
        <spider.space-radius value="10"/>
    </spider_network>

    <output>
        <output-file value="Spider.net.xml"/>
    </output>

</configuration>
-->

<net version="1.16" junctionCornerDetail="5" limitTurnSpeed="5.50" xmlns:xsi="http://www.w3.org/2001/XMLSchema-instance" xsi:noNamespaceSchemaLocation="http://sumo.dlr.de/xsd/net_file.xsd">

    <location netOffset="30.00,30.00" convBoundary="0.00,0.00,60.00,60.00" origBoundary="-30.00,-30.00,30.00,30.00" projParameter="!"/>

    <edge id=":A1_0" function="internal">
        <lane id=":A1_0_0" index="0" speed="3.38" length="1.67" shape="28.40,32.64 28.34,32.18 28.14,31.86 27.82,31.66 27.36,31.60"/>
    </edge>
    <edge id=":A1_1" function="internal">
        <lane id=":A1_1_0" index="0" speed="13.89" length="5.27" shape="28.40,32.64 28.40,27.36"/>
    </edge>
    <edge id=":A1_2" function="internal">
        <lane id=":A1_2_0" index="0" speed="5.62" length="6.47" shape="28.40,32.64 28.78,31.13 29.77,29.77 31.13,28.78 32.64,28.40"/>
    </edge>
    <edge id=":A1_3" function="internal">
        <lane id=":A1_3_0" index="0" speed="3.65" length="4.67" shape="28.40,32.64 29.20,31.44 30.00,31.04 30.80,31.44 31.60,32.64"/>
    </edge>
    <edge id=":A1_4" function="internal">
        <lane id=":A1_4_0" index="0" speed="3.38" length="1.67" shape="32.64,31.60 32.18,31.66 31.86,31.86 31.66,32.18 31.60,32.64"/>
    </edge>
    <edge id=":A1_5" function="internal">
        <lane id=":A1_5_0" index="0" speed="13.89" length="5.27" shape="32.64,31.60 27.36,31.60"/>
    </edge>
    <edge id=":A1_6" function="internal">
        <lane id=":A1_6_0" index="0" speed="5.62" length="6.47" shape="32.64,31.60 31.13,31.22 29.77,30.23 28.78,28.87 28.40,27.36"/>
    </edge>
    <edge id=":A1_7" function="internal">
        <lane id=":A1_7_0" index="0" speed="3.65" length="4.67" shape="32.64,31.60 31.44,30.80 31.04,30.00 31.44,29.20 32.64,28.40"/>
    </edge>
    <edge id=":A1_8" function="internal">
        <lane id=":A1_8_0" index="0" speed="3.38" length="1.67" shape="31.60,27.36 31.66,27.82 31.86,28.14 32.18,28.34 32.64,28.40"/>
    </edge>
    <edge id=":A1_9" function="internal">
        <lane id=":A1_9_0" index="0" speed="13.89" length="5.27" shape="31.60,27.36 31.60,32.64"/>
    </edge>
    <edge id=":A1_10" function="internal">
        <lane id=":A1_10_0" index="0" speed="5.62" length="6.47" shape="31.60,27.36 31.22,28.87 30.23,30.23 28.87,31.22 27.36,31.60"/>
    </edge>
    <edge id=":A1_11" function="internal">
        <lane id=":A1_11_0" index="0" speed="3.65" length="4.67" shape="31.60,27.36 30.80,28.56 30.00,28.96 29.20,28.56 28.40,27.36"/>
    </edge>
    <edge id=":A1_12" function="internal">
        <lane id=":A1_12_0" index="0" speed="3.38" length="1.67" shape="27.36,28.40 27.82,28.34 28.14,28.14 28.34,27.82 28.40,27.36"/>
    </edge>
    <edge id=":A1_13" function="internal">
        <lane id=":A1_13_0" index="0" speed="13.89" length="5.27" shape="27.36,28.40 32.64,28.40"/>
    </edge>
    <edge id=":A1_14" function="internal">
        <lane id=":A1_14_0" index="0" speed="5.62" length="6.47" shape="27.36,28.40 28.87,28.78 30.23,29.77 31.22,31.13 31.60,32.64"/>
    </edge>
    <edge id=":A1_15" function="internal">
        <lane id=":A1_15_0" index="0" speed="3.65" length="4.67" shape="27.36,28.40 28.56,29.20 28.96,30.00 28.56,30.80 27.36,31.60"/>
    </edge>
    <edge id=":B1_0" function="internal">
        <lane id=":B1_0_0" index="0" speed="9.10" length="7.47" shape="41.70,31.60 39.70,31.94 38.56,32.89 37.62,34.31 36.20,36.06"/>
    </edge>
    <edge id=":B1_1" function="internal">
        <lane id=":B1_1_0" index="0" speed="13.89" length="8.86" shape="41.70,31.60 32.84,31.60"/>
    </edge>
    <edge id=":B1_2" function="internal">
        <lane id=":B1_2_0" index="0" speed="10.22" length="2.12" shape="41.70,31.60 40.30,31.07 39.77,30.73"/>
    </edge>
    <edge id=":B1_3" function="internal">
        <lane id=":B1_3_0" index="0" speed="3.65" length="1.44" shape="41.70,31.60 40.50,30.80"/>
    </edge>
    <edge id=":B1_16" function="internal">
        <lane id=":B1_16_0" index="0" speed="10.22" length="7.40" shape="39.77,30.73 38.21,29.74 35.93,27.99 33.94,26.20"/>
    </edge>
    <edge id=":B1_17" function="internal">
        <lane id=":B1_17_0" index="0" speed="3.65" length="3.23" shape="40.50,30.80 40.10,30.00 40.50,29.20 41.70,28.40"/>
    </edge>
    <edge id=":B1_4" function="internal">
        <lane id=":B1_4_0" index="0" speed="8.91" length="7.13" shape="36.20,23.94 38.22,25.89 39.81,27.28 40.97,28.12 41.70,28.40"/>
    </edge>
    <edge id=":B1_5" function="internal">
        <lane id=":B1_5_0" index="0" speed="7.90" length="13.82" shape="36.20,23.94 38.47,26.97 39.23,30.00 38.47,33.03 36.20,36.06"/>
    </edge>
    <edge id=":B1_6" function="internal">
        <lane id=":B1_6_0" index="0" speed="5.43" length="9.57" shape="36.20,23.94 36.90,25.97 36.31,28.51 34.82,30.68 32.84,31.60"/>
    </edge>
    <edge id=":B1_7" function="internal">
        <lane id=":B1_7_0" index="0" speed="3.65" length="4.67" shape="36.20,23.94 36.48,25.35 36.20,26.20 35.35,26.48 33.94,26.20"/>
    </edge>
    <edge id=":B1_8" function="internal">
        <lane id=":B1_8_0" index="0" speed="3.85" length="3.97" shape="32.84,28.40 34.14,28.26 34.76,27.85 34.69,27.16 33.94,26.20"/>
    </edge>
    <edge id=":B1_9" function="internal">
        <lane id=":B1_9_0" index="0" speed="13.89" length="8.86" shape="32.84,28.40 41.70,28.40"/>
    </edge>
    <edge id=":B1_10" function="internal">
        <lane id=":B1_10_0" index="0" speed="5.43" length="3.01" shape="32.84,28.40 34.82,29.32 35.28,30.00"/>
    </edge>
    <edge id=":B1_11" function="internal">
        <lane id=":B1_11_0" index="0" speed="3.65" length="1.44" shape="32.84,28.40 34.04,29.20"/>
    </edge>
    <edge id=":B1_18" function="internal">
        <lane id=":B1_18_0" index="0" speed="5.43" length="6.56" shape="35.28,30.00 36.31,31.49 36.90,34.03 36.20,36.06"/>
    </edge>
    <edge id=":B1_19" function="internal">
        <lane id=":B1_19_0" index="0" speed="3.65" length="3.23" shape="34.04,29.20 34.44,30.00 34.04,30.80 32.84,31.60"/>
    </edge>
    <edge id=":B1_12" function="internal">
        <lane id=":B1_12_0" index="0" speed="3.85" length="3.97" shape="33.94,33.80 34.69,32.84 34.76,32.15 34.14,31.74 32.84,31.60"/>
    </edge>
    <edge id=":B1_13" function="internal">
        <lane id=":B1_13_0" index="0" speed="6.39" length="8.66" shape="33.94,33.80 35.36,31.90 35.84,30.00 35.36,28.10 33.94,26.20"/>
    </edge>
    <edge id=":B1_14" function="internal">
        <lane id=":B1_14_0" index="0" speed="10.22" length="9.52" shape="33.94,33.80 35.93,32.01 38.21,30.26 40.30,28.93 41.70,28.40"/>
    </edge>
    <edge id=":B1_15" function="internal">
        <lane id=":B1_15_0" index="0" speed="3.65" length="4.67" shape="33.94,33.80 35.35,33.52 36.20,33.80 36.48,34.65 36.20,36.06"/>
    </edge>
    <edge id=":B2_0" function="internal">
        <lane id=":B2_0_0" index="0" speed="8.91" length="7.13" shape="28.40,41.70 28.12,40.97 27.28,39.81 25.89,38.22 23.94,36.20"/>
    </edge>
    <edge id=":B2_1" function="internal">
        <lane id=":B2_1_0" index="0" speed="13.89" length="8.86" shape="28.40,41.70 28.40,32.84"/>
    </edge>
    <edge id=":B2_2" function="internal">
        <lane id=":B2_2_0" index="0" speed="10.43" length="3.23" shape="28.40,41.70 28.77,38.96 29.03,38.57"/>
    </edge>
    <edge id=":B2_3" function="internal">
        <lane id=":B2_3_0" index="0" speed="3.65" length="1.44" shape="28.40,41.70 29.20,40.50"/>
    </edge>
    <edge id=":B2_16" function="internal">
        <lane id=":B2_16_0" index="0" speed="10.43" length="6.70" shape="29.03,38.57 29.85,37.30 31.54,35.90 33.80,33.94"/>
    </edge>
    <edge id=":B2_17" function="internal">
        <lane id=":B2_17_0" index="0" speed="3.65" length="3.23" shape="29.20,40.50 30.00,40.10 30.80,40.50 31.60,41.70"/>
    </edge>
    <edge id=":B2_4" function="internal">
        <lane id=":B2_4_0" index="0" speed="8.91" length="7.13" shape="36.06,36.20 34.11,38.22 32.72,39.81 31.88,40.97 31.60,41.70"/>
    </edge>
    <edge id=":B2_5" function="internal">
        <lane id=":B2_5_0" index="0" speed="7.90" length="13.82" shape="36.06,36.20 33.03,38.47 30.00,39.23 26.97,38.47 23.94,36.20"/>
    </edge>
    <edge id=":B2_6" function="internal">
        <lane id=":B2_6_0" index="0" speed="5.43" length="9.57" shape="36.06,36.20 34.03,36.90 31.49,36.31 29.32,34.82 28.40,32.84"/>
    </edge>
    <edge id=":B2_7" function="internal">
        <lane id=":B2_7_0" index="0" speed="3.65" length="4.67" shape="36.06,36.20 34.65,36.48 33.80,36.20 33.52,35.35 33.80,33.94"/>
    </edge>
    <edge id=":B2_8" function="internal">
        <lane id=":B2_8_0" index="0" speed="3.85" length="3.97" shape="31.60,32.84 31.74,34.14 32.15,34.76 32.84,34.69 33.80,33.94"/>
    </edge>
    <edge id=":B2_9" function="internal">
        <lane id=":B2_9_0" index="0" speed="13.89" length="8.86" shape="31.60,32.84 31.60,41.70"/>
    </edge>
    <edge id=":B2_10" function="internal">
        <lane id=":B2_10_0" index="0" speed="5.43" length="3.01" shape="31.60,32.84 30.68,34.82 30.00,35.28"/>
    </edge>
    <edge id=":B2_11" function="internal">
        <lane id=":B2_11_0" index="0" speed="3.65" length="1.44" shape="31.60,32.84 30.80,34.04"/>
    </edge>
    <edge id=":B2_18" function="internal">
        <lane id=":B2_18_0" index="0" speed="5.43" length="6.56" shape="30.00,35.28 28.51,36.31 25.97,36.90 23.94,36.20"/>
    </edge>
    <edge id=":B2_19" function="internal">
        <lane id=":B2_19_0" index="0" speed="3.65" length="3.23" shape="30.80,34.04 30.00,34.44 29.20,34.04 28.40,32.84"/>
    </edge>
    <edge id=":B2_12" function="internal">
        <lane id=":B2_12_0" index="0" speed="3.85" length="3.97" shape="26.20,33.94 27.16,34.69 27.85,34.76 28.26,34.14 28.40,32.84"/>
    </edge>
    <edge id=":B2_13" function="internal">
        <lane id=":B2_13_0" index="0" speed="6.39" length="8.66" shape="26.20,33.94 28.10,35.36 30.00,35.84 31.90,35.36 33.80,33.94"/>
    </edge>
    <edge id=":B2_14" function="internal">
        <lane id=":B2_14_0" index="0" speed="10.22" length="9.52" shape="26.20,33.94 27.99,35.93 29.74,38.21 31.07,40.30 31.60,41.70"/>
    </edge>
    <edge id=":B2_15" function="internal">
        <lane id=":B2_15_0" index="0" speed="3.65" length="4.67" shape="26.20,33.94 26.48,35.35 26.20,36.20 25.35,36.48 23.94,36.20"/>
    </edge>
    <edge id=":B3_0" function="internal">
        <lane id=":B3_0_0" index="0" speed="9.10" length="7.47" shape="23.80,36.06 22.38,34.31 21.44,32.89 20.30,31.94 18.30,31.60"/>
    </edge>
    <edge id=":B3_1" function="internal">
        <lane id=":B3_1_0" index="0" speed="7.90" length="13.82" shape="23.80,36.06 21.53,33.03 20.77,30.00 21.53,26.97 23.80,23.94"/>
    </edge>
    <edge id=":B3_2" function="internal">
        <lane id=":B3_2_0" index="0" speed="5.43" length="9.57" shape="23.80,36.06 23.10,34.03 23.69,31.49 25.18,29.32 27.16,28.40"/>
    </edge>
    <edge id=":B3_3" function="internal">
        <lane id=":B3_3_0" index="0" speed="3.65" length="4.67" shape="23.80,36.06 23.52,34.65 23.80,33.80 24.65,33.52 26.06,33.80"/>
    </edge>
    <edge id=":B3_4" function="internal">
        <lane id=":B3_4_0" index="0" speed="3.85" length="3.97" shape="27.16,31.60 25.86,31.74 25.24,32.15 25.31,32.84 26.06,33.80"/>
    </edge>
    <edge id=":B3_5" function="internal">
        <lane id=":B3_5_0" index="0" speed="13.89" length="8.86" shape="27.16,31.60 18.30,31.60"/>
    </edge>
    <edge id=":B3_6" function="internal">
        <lane id=":B3_6_0" index="0" speed="5.43" length="3.01" shape="27.16,31.60 25.18,30.68 24.72,30.00"/>
    </edge>
    <edge id=":B3_7" function="internal">
        <lane id=":B3_7_0" index="0" speed="3.65" length="1.44" shape="27.16,31.60 25.96,30.80"/>
    </edge>
    <edge id=":B3_16" function="internal">
        <lane id=":B3_16_0" index="0" speed="5.43" length="6.56" shape="24.72,30.00 23.69,28.51 23.10,25.97 23.80,23.94"/>
    </edge>
    <edge id=":B3_17" function="internal">
        <lane id=":B3_17_0" index="0" speed="3.65" length="3.23" shape="25.96,30.80 25.56,30.00 25.96,29.20 27.16,28.40"/>
    </edge>
    <edge id=":B3_8" function="internal">
        <lane id=":B3_8_0" index="0" speed="3.85" length="3.97" shape="26.06,26.20 25.31,27.16 25.24,27.85 25.86,28.26 27.16,28.40"/>
    </edge>
    <edge id=":B3_9" function="internal">
        <lane id=":B3_9_0" index="0" speed="6.39" length="8.66" shape="26.06,26.20 24.64,28.10 24.16,30.00 24.64,31.90 26.06,33.80"/>
    </edge>
    <edge id=":B3_10" function="internal">
        <lane id=":B3_10_0" index="0" speed="10.22" length="9.52" shape="26.06,26.20 24.07,27.99 21.79,29.74 19.70,31.07 18.30,31.60"/>
    </edge>
    <edge id=":B3_11" function="internal">
        <lane id=":B3_11_0" index="0" speed="3.65" length="4.67" shape="26.06,26.20 24.65,26.48 23.80,26.20 23.52,25.35 23.80,23.94"/>
    </edge>
    <edge id=":B3_12" function="internal">
        <lane id=":B3_12_0" index="0" speed="8.91" length="7.13" shape="18.30,28.40 19.03,28.12 20.19,27.28 21.78,25.89 23.80,23.94"/>
    </edge>
    <edge id=":B3_13" function="internal">
        <lane id=":B3_13_0" index="0" speed="13.89" length="8.86" shape="18.30,28.40 27.16,28.40"/>
    </edge>
    <edge id=":B3_14" function="internal">
        <lane id=":B3_14_0" index="0" speed="10.22" length="2.12" shape="18.30,28.40 19.70,28.93 20.23,29.27"/>
    </edge>
    <edge id=":B3_15" function="internal">
        <lane id=":B3_15_0" index="0" speed="3.65" length="1.44" shape="18.30,28.40 19.50,29.20"/>
    </edge>
    <edge id=":B3_18" function="internal">
        <lane id=":B3_18_0" index="0" speed="10.22" length="7.40" shape="20.23,29.27 21.79,30.26 24.07,32.01 26.06,33.80"/>
    </edge>
    <edge id=":B3_19" function="internal">
        <lane id=":B3_19_0" index="0" speed="3.65" length="3.23" shape="19.50,29.20 19.90,30.00 19.50,30.80 18.30,31.60"/>
    </edge>
    <edge id=":B4_0" function="internal">
        <lane id=":B4_0_0" index="0" speed="3.85" length="3.97" shape="28.40,27.16 28.26,25.86 27.85,25.24 27.16,25.31 26.20,26.06"/>
    </edge>
    <edge id=":B4_1" function="internal">
        <lane id=":B4_1_0" index="0" speed="13.89" length="8.86" shape="28.40,27.16 28.40,18.30"/>
    </edge>
    <edge id=":B4_2" function="internal">
        <lane id=":B4_2_0" index="0" speed="5.43" length="3.01" shape="28.40,27.16 29.32,25.18 30.00,24.72"/>
    </edge>
    <edge id=":B4_3" function="internal">
        <lane id=":B4_3_0" index="0" speed="3.65" length="1.44" shape="28.40,27.16 29.20,25.96"/>
    </edge>
    <edge id=":B4_16" function="internal">
        <lane id=":B4_16_0" index="0" speed="5.43" length="6.56" shape="30.00,24.72 31.49,23.69 34.03,23.10 36.06,23.80"/>
    </edge>
    <edge id=":B4_17" function="internal">
        <lane id=":B4_17_0" index="0" speed="3.65" length="3.23" shape="29.20,25.96 30.00,25.56 30.80,25.96 31.60,27.16"/>
    </edge>
    <edge id=":B4_4" function="internal">
        <lane id=":B4_4_0" index="0" speed="3.85" length="3.97" shape="33.80,26.06 32.84,25.31 32.15,25.24 31.74,25.86 31.60,27.16"/>
    </edge>
    <edge id=":B4_5" function="internal">
        <lane id=":B4_5_0" index="0" speed="6.39" length="8.66" shape="33.80,26.06 31.90,24.64 30.00,24.16 28.10,24.64 26.20,26.06"/>
    </edge>
    <edge id=":B4_6" function="internal">
        <lane id=":B4_6_0" index="0" speed="10.43" length="9.93" shape="33.80,26.06 31.54,24.10 29.85,22.70 28.77,21.04 28.40,18.30"/>
    </edge>
    <edge id=":B4_7" function="internal">
        <lane id=":B4_7_0" index="0" speed="3.65" length="4.67" shape="33.80,26.06 33.52,24.65 33.80,23.80 34.65,23.52 36.06,23.80"/>
    </edge>
    <edge id=":B4_8" function="internal">
        <lane id=":B4_8_0" index="0" speed="8.91" length="7.13" shape="31.60,18.30 31.88,19.03 32.72,20.19 34.11,21.78 36.06,23.80"/>
    </edge>
    <edge id=":B4_9" function="internal">
        <lane id=":B4_9_0" index="0" speed="13.89" length="8.86" shape="31.60,18.30 31.60,27.16"/>
    </edge>
    <edge id=":B4_10" function="internal">
        <lane id=":B4_10_0" index="0" speed="10.22" length="2.12" shape="31.60,18.30 31.07,19.70 30.73,20.23"/>
    </edge>
    <edge id=":B4_11" function="internal">
        <lane id=":B4_11_0" index="0" speed="3.65" length="1.44" shape="31.60,18.30 30.80,19.50"/>
    </edge>
    <edge id=":B4_18" function="internal">
        <lane id=":B4_18_0" index="0" speed="10.22" length="7.40" shape="30.73,20.23 29.74,21.79 27.99,24.07 26.20,26.06"/>
    </edge>
    <edge id=":B4_19" function="internal">
        <lane id=":B4_19_0" index="0" speed="3.65" length="3.23" shape="30.80,19.50 30.00,19.90 29.20,19.50 28.40,18.30"/>
    </edge>
    <edge id=":B4_12" function="internal">
        <lane id=":B4_12_0" index="0" speed="8.91" length="7.13" shape="23.94,23.80 25.89,21.78 27.28,20.19 28.12,19.03 28.40,18.30"/>
    </edge>
    <edge id=":B4_13" function="internal">
        <lane id=":B4_13_0" index="0" speed="7.90" length="13.82" shape="23.94,23.80 26.97,21.53 30.00,20.77 33.03,21.53 36.06,23.80"/>
    </edge>
    <edge id=":B4_14" function="internal">
        <lane id=":B4_14_0" index="0" speed="5.43" length="9.57" shape="23.94,23.80 25.97,23.10 28.51,23.69 30.68,25.18 31.60,27.16"/>
    </edge>
    <edge id=":B4_15" function="internal">
        <lane id=":B4_15_0" index="0" speed="3.65" length="4.67" shape="23.94,23.80 25.35,23.52 26.20,23.80 26.48,24.65 26.20,26.06"/>
    </edge>
    <edge id=":C1_0" function="internal">
        <lane id=":C1_0_0" index="0" speed="11.36" length="11.86" shape="51.70,31.60 50.76,32.09 48.97,33.56 46.33,36.00 42.84,39.42"/>
    </edge>
    <edge id=":C1_1" function="internal">
        <lane id=":C1_1_0" index="0" speed="13.89" length="9.80" shape="51.70,31.60 41.90,31.60"/>
    </edge>
    <edge id=":C1_2" function="internal">
        <lane id=":C1_2_0" index="0" speed="12.40" length="1.98" shape="51.70,31.60 49.93,30.70"/>
    </edge>
    <edge id=":C1_3" function="internal">
        <lane id=":C1_3_0" index="0" speed="3.65" length="1.44" shape="51.70,31.60 50.50,30.80"/>
    </edge>
    <edge id=":C1_16" function="internal">
        <lane id=":C1_16_0" index="0" speed="12.40" length="12.23" shape="49.93,30.70 46.95,28.47 43.56,25.62 40.58,22.84"/>
    </edge>
    <edge id=":C1_17" function="internal">
        <lane id=":C1_17_0" index="0" speed="3.65" length="3.23" shape="50.50,30.80 50.10,30.00 50.50,29.20 51.70,28.40"/>
    </edge>
    <edge id=":C1_4" function="internal">
        <lane id=":C1_4_0" index="0" speed="11.36" length="11.86" shape="42.84,20.58 46.33,24.00 48.97,26.44 50.76,27.91 51.70,28.40"/>
    </edge>
    <edge id=":C1_5" function="internal">
        <lane id=":C1_5_0" index="0" speed="9.73" length="21.49" shape="42.84,20.58 46.37,25.29 47.55,30.00 46.37,34.71 42.84,39.42"/>
    </edge>
    <edge id=":C1_6" function="internal">
        <lane id=":C1_6_0" index="0" speed="6.13" length="12.62" shape="42.84,20.58 44.31,23.40 44.73,27.07 43.97,30.24 41.90,31.60"/>
    </edge>
    <edge id=":C1_7" function="internal">
        <lane id=":C1_7_0" index="0" speed="3.65" length="4.67" shape="42.84,20.58 43.12,21.99 42.84,22.84 41.99,23.12 40.58,22.84"/>
    </edge>
    <edge id=":C1_8" function="internal">
        <lane id=":C1_8_0" index="0" speed="5.00" length="7.86" shape="41.90,28.40 43.41,28.05 43.69,27.01 42.75,25.27 40.58,22.84"/>
    </edge>
    <edge id=":C1_9" function="internal">
        <lane id=":C1_9_0" index="0" speed="13.89" length="9.80" shape="41.90,28.40 51.70,28.40"/>
    </edge>
    <edge id=":C1_10" function="internal">
        <lane id=":C1_10_0" index="0" speed="6.13" length="2.73" shape="41.90,28.40 43.97,29.76 44.03,30.00"/>
    </edge>
    <edge id=":C1_11" function="internal">
        <lane id=":C1_11_0" index="0" speed="3.65" length="1.44" shape="41.90,28.40 43.10,29.20"/>
    </edge>
    <edge id=":C1_18" function="internal">
        <lane id=":C1_18_0" index="0" speed="6.13" length="9.89" shape="44.03,30.00 44.73,32.93 44.31,36.60 42.84,39.42"/>
    </edge>
    <edge id=":C1_19" function="internal">
        <lane id=":C1_19_0" index="0" speed="3.65" length="3.23" shape="43.10,29.20 43.50,30.00 43.10,30.80 41.90,31.60"/>
    </edge>
    <edge id=":C1_12" function="internal">
        <lane id=":C1_12_0" index="0" speed="5.00" length="7.86" shape="40.58,37.16 42.75,34.73 43.69,32.99 43.41,31.95 41.90,31.60"/>
    </edge>
    <edge id=":C1_13" function="internal">
        <lane id=":C1_13_0" index="0" speed="8.54" length="16.33" shape="40.58,37.16 43.26,33.58 44.16,30.00 43.26,26.42 40.58,22.84"/>
    </edge>
    <edge id=":C1_14" function="internal">
        <lane id=":C1_14_0" index="0" speed="12.40" length="14.21" shape="40.58,37.16 43.56,34.38 46.95,31.53 49.93,29.30 51.70,28.40"/>
    </edge>
    <edge id=":C1_15" function="internal">
        <lane id=":C1_15_0" index="0" speed="3.65" length="4.67" shape="40.58,37.16 41.99,36.88 42.84,37.16 43.12,38.01 42.84,39.42"/>
    </edge>
    <edge id=":C2_0" function="internal">
        <lane id=":C2_0_0" index="0" speed="11.36" length="11.86" shape="28.40,51.70 27.91,50.76 26.44,48.97 24.00,46.33 20.58,42.84"/>
    </edge>
    <edge id=":C2_1" function="internal">
        <lane id=":C2_1_0" index="0" speed="13.89" length="9.80" shape="28.40,51.70 28.40,41.90"/>
    </edge>
    <edge id=":C2_2" function="internal">
        <lane id=":C2_2_0" index="0" speed="12.40" length="1.98" shape="28.40,51.70 29.30,49.93"/>
    </edge>
    <edge id=":C2_3" function="internal">
        <lane id=":C2_3_0" index="0" speed="3.65" length="1.44" shape="28.40,51.70 29.20,50.50"/>
    </edge>
    <edge id=":C2_16" function="internal">
        <lane id=":C2_16_0" index="0" speed="12.40" length="12.23" shape="29.30,49.93 31.53,46.95 34.38,43.56 37.16,40.58"/>
    </edge>
    <edge id=":C2_17" function="internal">
        <lane id=":C2_17_0" index="0" speed="3.65" length="3.23" shape="29.20,50.50 30.00,50.10 30.80,50.50 31.60,51.70"/>
    </edge>
    <edge id=":C2_4" function="internal">
        <lane id=":C2_4_0" index="0" speed="11.36" length="11.86" shape="39.42,42.84 36.00,46.33 33.56,48.97 32.09,50.76 31.60,51.70"/>
    </edge>
    <edge id=":C2_5" function="internal">
        <lane id=":C2_5_0" index="0" speed="9.73" length="21.49" shape="39.42,42.84 34.71,46.37 30.00,47.55 25.29,46.37 20.58,42.84"/>
    </edge>
    <edge id=":C2_6" function="internal">
        <lane id=":C2_6_0" index="0" speed="6.13" length="12.62" shape="39.42,42.84 36.60,44.31 32.93,44.73 29.76,43.97 28.40,41.90"/>
    </edge>
    <edge id=":C2_7" function="internal">
        <lane id=":C2_7_0" index="0" speed="3.65" length="4.67" shape="39.42,42.84 38.01,43.12 37.16,42.84 36.88,41.99 37.16,40.58"/>
    </edge>
    <edge id=":C2_8" function="internal">
        <lane id=":C2_8_0" index="0" speed="5.00" length="7.86" shape="31.60,41.90 31.95,43.41 32.99,43.69 34.73,42.75 37.16,40.58"/>
    </edge>
    <edge id=":C2_9" function="internal">
        <lane id=":C2_9_0" index="0" speed="13.89" length="9.80" shape="31.60,41.90 31.60,51.70"/>
    </edge>
    <edge id=":C2_10" function="internal">
        <lane id=":C2_10_0" index="0" speed="6.13" length="2.73" shape="31.60,41.90 30.24,43.97 30.00,44.03"/>
    </edge>
    <edge id=":C2_11" function="internal">
        <lane id=":C2_11_0" index="0" speed="3.65" length="1.44" shape="31.60,41.90 30.80,43.10"/>
    </edge>
    <edge id=":C2_18" function="internal">
        <lane id=":C2_18_0" index="0" speed="6.13" length="9.89" shape="30.00,44.03 27.07,44.73 23.40,44.31 20.58,42.84"/>
    </edge>
    <edge id=":C2_19" function="internal">
        <lane id=":C2_19_0" index="0" speed="3.65" length="3.23" shape="30.80,43.10 30.00,43.50 29.20,43.10 28.40,41.90"/>
    </edge>
    <edge id=":C2_12" function="internal">
        <lane id=":C2_12_0" index="0" speed="5.00" length="7.86" shape="22.84,40.58 25.27,42.75 27.01,43.69 28.05,43.41 28.40,41.90"/>
    </edge>
    <edge id=":C2_13" function="internal">
        <lane id=":C2_13_0" index="0" speed="8.54" length="16.33" shape="22.84,40.58 26.42,43.26 30.00,44.16 33.58,43.26 37.16,40.58"/>
    </edge>
    <edge id=":C2_14" function="internal">
        <lane id=":C2_14_0" index="0" speed="12.40" length="14.21" shape="22.84,40.58 25.62,43.56 28.47,46.95 30.70,49.93 31.60,51.70"/>
    </edge>
    <edge id=":C2_15" function="internal">
        <lane id=":C2_15_0" index="0" speed="3.65" length="4.67" shape="22.84,40.58 23.12,41.99 22.84,42.84 21.99,43.12 20.58,42.84"/>
    </edge>
    <edge id=":C3_0" function="internal">
        <lane id=":C3_0_0" index="0" speed="11.36" length="11.86" shape="17.16,39.42 13.67,36.00 11.03,33.56 9.24,32.09 8.30,31.60"/>
    </edge>
    <edge id=":C3_1" function="internal">
        <lane id=":C3_1_0" index="0" speed="9.73" length="21.49" shape="17.16,39.42 13.63,34.71 12.45,30.00 13.63,25.29 17.16,20.58"/>
    </edge>
    <edge id=":C3_2" function="internal">
        <lane id=":C3_2_0" index="0" speed="6.13" length="12.62" shape="17.16,39.42 15.69,36.60 15.27,32.93 16.03,29.76 18.10,28.40"/>
    </edge>
    <edge id=":C3_3" function="internal">
        <lane id=":C3_3_0" index="0" speed="3.65" length="4.67" shape="17.16,39.42 16.88,38.01 17.16,37.16 18.01,36.88 19.42,37.16"/>
    </edge>
    <edge id=":C3_4" function="internal">
        <lane id=":C3_4_0" index="0" speed="5.00" length="7.86" shape="18.10,31.60 16.59,31.95 16.31,32.99 17.25,34.73 19.42,37.16"/>
    </edge>
    <edge id=":C3_5" function="internal">
        <lane id=":C3_5_0" index="0" speed="13.89" length="9.80" shape="18.10,31.60 8.30,31.60"/>
    </edge>
    <edge id=":C3_6" function="internal">
        <lane id=":C3_6_0" index="0" speed="6.13" length="2.73" shape="18.10,31.60 16.03,30.24 15.97,30.00"/>
    </edge>
    <edge id=":C3_7" function="internal">
        <lane id=":C3_7_0" index="0" speed="3.65" length="1.44" shape="18.10,31.60 16.90,30.80"/>
    </edge>
    <edge id=":C3_16" function="internal">
        <lane id=":C3_16_0" index="0" speed="6.13" length="9.89" shape="15.97,30.00 15.27,27.07 15.69,23.40 17.16,20.58"/>
    </edge>
    <edge id=":C3_17" function="internal">
        <lane id=":C3_17_0" index="0" speed="3.65" length="3.23" shape="16.90,30.80 16.50,30.00 16.90,29.20 18.10,28.40"/>
    </edge>
    <edge id=":C3_8" function="internal">
        <lane id=":C3_8_0" index="0" speed="5.00" length="7.86" shape="19.42,22.84 17.25,25.27 16.31,27.01 16.59,28.05 18.10,28.40"/>
    </edge>
    <edge id=":C3_9" function="internal">
        <lane id=":C3_9_0" index="0" speed="8.54" length="16.33" shape="19.42,22.84 16.74,26.42 15.84,30.00 16.74,33.58 19.42,37.16"/>
    </edge>
    <edge id=":C3_10" function="internal">
        <lane id=":C3_10_0" index="0" speed="12.40" length="14.21" shape="19.42,22.84 16.44,25.62 13.05,28.47 10.07,30.70 8.30,31.60"/>
    </edge>
    <edge id=":C3_11" function="internal">
        <lane id=":C3_11_0" index="0" speed="3.65" length="4.67" shape="19.42,22.84 18.01,23.12 17.16,22.84 16.88,21.99 17.16,20.58"/>
    </edge>
    <edge id=":C3_12" function="internal">
        <lane id=":C3_12_0" index="0" speed="11.36" length="11.86" shape="8.30,28.40 9.24,27.91 11.03,26.44 13.67,24.00 17.16,20.58"/>
    </edge>
    <edge id=":C3_13" function="internal">
        <lane id=":C3_13_0" index="0" speed="13.89" length="9.80" shape="8.30,28.40 18.10,28.40"/>
    </edge>
    <edge id=":C3_14" function="internal">
        <lane id=":C3_14_0" index="0" speed="12.40" length="1.98" shape="8.30,28.40 10.07,29.30"/>
    </edge>
    <edge id=":C3_15" function="internal">
        <lane id=":C3_15_0" index="0" speed="3.65" length="1.44" shape="8.30,28.40 9.50,29.20"/>
    </edge>
    <edge id=":C3_18" function="internal">
        <lane id=":C3_18_0" index="0" speed="12.40" length="12.23" shape="10.07,29.30 13.05,31.53 16.44,34.38 19.42,37.16"/>
    </edge>
    <edge id=":C3_19" function="internal">
        <lane id=":C3_19_0" index="0" speed="3.65" length="3.23" shape="9.50,29.20 9.90,30.00 9.50,30.80 8.30,31.60"/>
    </edge>
    <edge id=":C4_0" function="internal">
        <lane id=":C4_0_0" index="0" speed="5.00" length="7.86" shape="28.40,18.10 28.05,16.59 27.01,16.31 25.27,17.25 22.84,19.42"/>
    </edge>
    <edge id=":C4_1" function="internal">
        <lane id=":C4_1_0" index="0" speed="13.89" length="9.80" shape="28.40,18.10 28.40,8.30"/>
    </edge>
    <edge id=":C4_2" function="internal">
        <lane id=":C4_2_0" index="0" speed="6.13" length="2.73" shape="28.40,18.10 29.76,16.03 30.00,15.97"/>
    </edge>
    <edge id=":C4_3" function="internal">
        <lane id=":C4_3_0" index="0" speed="3.65" length="1.44" shape="28.40,18.10 29.20,16.90"/>
    </edge>
    <edge id=":C4_16" function="internal">
        <lane id=":C4_16_0" index="0" speed="6.13" length="9.89" shape="30.00,15.97 32.93,15.27 36.60,15.69 39.42,17.16"/>
    </edge>
    <edge id=":C4_17" function="internal">
        <lane id=":C4_17_0" index="0" speed="3.65" length="3.23" shape="29.20,16.90 30.00,16.50 30.80,16.90 31.60,18.10"/>
    </edge>
    <edge id=":C4_4" function="internal">
        <lane id=":C4_4_0" index="0" speed="5.00" length="7.86" shape="37.16,19.42 34.73,17.25 32.99,16.31 31.95,16.59 31.60,18.10"/>
    </edge>
    <edge id=":C4_5" function="internal">
        <lane id=":C4_5_0" index="0" speed="8.54" length="16.33" shape="37.16,19.42 33.58,16.74 30.00,15.84 26.42,16.74 22.84,19.42"/>
    </edge>