<?xml version="1.0" encoding="UTF-8"?>
<types>
    <type id="3_lanes" priority="3" numLanes="3" speed="13.889" />
    <type id="1_lane" priority="3" numLanes="1" speed="13.889" />
</types>