<?xml version="1.0" encoding="UTF-8"?>

<!-- generated on 2024-04-18 14:02:34 by Eclipse SUMO netedit Version 1.19.0
-->

<routes xmlns:xsi="http://www.w3.org/2001/XMLSchema-instance" xsi:noNamespaceSchemaLocation="http://sumo.dlr.de/xsd/routes_file.xsd">
    <!-- Routes -->
    <route id="route1" edges="E0 E1"/>
    <!-- Vehicles, persons and containers (sorted by depart) -->
    <trip id="car1" depart="0.00" color="97,230,235" from="E0" to="E1"/>
</routes>
