<?xml version="1.0" encoding="UTF-8"?>

<!-- generated on 2024-04-18 13:18:45 by Eclipse SUMO sumo Version 1.19.0
-->

<configuration xmlns:xsi="http://www.w3.org/2001/XMLSchema-instance" xsi:noNamespaceSchemaLocation="http://sumo.dlr.de/xsd/sumoConfiguration.xsd">

    <input>
        <net-file value="hello_world.net.xml"/>
        <route-files value="hello_world.rou.xml"/>
    </input>

</configuration>
