<?xml version="1.0" encoding="UTF-8"?>

<!-- generated on 2024-04-25 11:08:42 by Eclipse SUMO netedit Version 1.19.0
-->

<routes xmlns:xsi="http://www.w3.org/2001/XMLSchema-instance" xsi:noNamespaceSchemaLocation="http://sumo.dlr.de/xsd/routes_file.xsd">
    <!-- VTypes -->
    <vType id="CarA" length="5.00" minGap="2.50" maxSpeed="50.00" accel="3.0" decel="6.0" sigma="0.5"/>
    <vType id="CarB" length="7.50" minGap="2.50" maxSpeed="50.00" accel="2.0" decel="6.0" sigma="0.5"/>
    <vType id="CarC" length="5.00" minGap="2.50" maxSpeed="40.00" accel="1.0" decel="5.0" sigma="0.5"/>
    <vType id="CarD" length="7.50" minGap="2.50" maxSpeed="30.00" accel="1.0" decel="5.0" sigma="0.5"/>
    <!-- Routes -->
    <route id="route01" edges="D2 L2 L12 L10 L7 D7"/>
    <route id="route02" edges="D2 L2 L12 L15 L18 L5 D5"/>
    <route id="route03" edges="D2 L2 L12 L15 L13 L3 D3"/>
    <route id="route04" edges="D4 L4 L14 L18 L5 D5"/>
    <route id="route05" edges="D4 L4 L14 L16 L10 L7 D7"/>
    <route id="route06" edges="D4 L4 L14 L16 L11 L1 D1"/>
    <route id="route07" edges="D6 L6 L17 L13 L3 D3"/>
    <route id="route08" edges="D6 L6 L17 L16 L11 L1 D1"/>
    <route id="route09" edges="D6 L6 L17 L16 L10 L7 D7"/>
    <route id="route10" edges="D8 L8 L9 L11 L1 D1"/>
    <route id="route11" edges="D8 L8 L9 L15 L13 L3 D3"/>
    <route id="route12" edges="D8 L8 L9 L15 L18 L5 D5"/>
    <!-- Vehicles, persons and containers (sorted by depart) -->
    <vehicle id="veh0" type="CarA" depart="54000.00" color="red" route="route01"/>
    <vehicle id="veh1" type="CarA" depart="54000.00" route="route02"/>
    <vehicle id="veh10" type="CarA" depart="54000.00" route="route11"/>
    <vehicle id="veh11" type="CarA" depart="54000.00" route="route12"/>
    <vehicle id="veh12" type="CarB" depart="54000.00" color="red" route="route01"/>
    <vehicle id="veh13" type="CarB" depart="54000.00" route="route02"/>
    <vehicle id="veh14" type="CarB" depart="54000.00" route="route03"/>
    <vehicle id="veh15" type="CarB" depart="54000.00" route="route04"/>
    <vehicle id="veh16" type="CarB" depart="54000.00" route="route05"/>
    <vehicle id="veh17" type="CarB" depart="54000.00" route="route06"/>
    <vehicle id="veh18" type="CarB" depart="54000.00" route="route07"/>
    <vehicle id="veh19" type="CarB" depart="54000.00" route="route08"/>
    <vehicle id="veh2" type="CarA" depart="54000.00" route="route03"/>
    <vehicle id="veh20" type="CarB" depart="54000.00" route="route09"/>
    <vehicle id="veh21" type="CarB" depart="54000.00" route="route10"/>
    <vehicle id="veh22" type="CarB" depart="54000.00" route="route11"/>
    <vehicle id="veh23" type="CarB" depart="54000.00" route="route12"/>
    <vehicle id="veh24" type="CarC" depart="54000.00" color="red" route="route01"/>
    <vehicle id="veh25" type="CarC" depart="54000.00" route="route02"/>
    <vehicle id="veh26" type="CarC" depart="54000.00" route="route03"/>
    <vehicle id="veh27" type="CarC" depart="54000.00" route="route04"/>
    <vehicle id="veh28" type="CarC" depart="54000.00" route="route05"/>
    <vehicle id="veh29" type="CarC" depart="54000.00" route="route06"/>
    <vehicle id="veh3" type="CarA" depart="54000.00" route="route04"/>
    <vehicle id="veh30" type="CarC" depart="54000.00" route="route07"/>
    <vehicle id="veh31" type="CarC" depart="54000.00" route="route08"/>
    <vehicle id="veh32" type="CarC" depart="54000.00" route="route09"/>
    <vehicle id="veh33" type="CarC" depart="54000.00" route="route10"/>
    <vehicle id="veh34" type="CarC" depart="54000.00" route="route11"/>
    <vehicle id="veh35" type="CarC" depart="54000.00" route="route12"/>
    <vehicle id="veh36" type="CarD" depart="54000.00" color="red" route="route01"/>
    <vehicle id="veh37" type="CarD" depart="54000.00" route="route02"/>
    <vehicle id="veh38" type="CarD" depart="54000.00" route="route03"/>
    <vehicle id="veh39" type="CarD" depart="54000.00" route="route04"/>
    <vehicle id="veh4" type="CarA" depart="54000.00" route="route05"/>
    <vehicle id="veh40" type="CarD" depart="54000.00" route="route05"/>
    <vehicle id="veh41" type="CarD" depart="54000.00" route="route06"/>
    <vehicle id="veh42" type="CarD" depart="54000.00" route="route07"/>
    <vehicle id="veh43" type="CarD" depart="54000.00" route="route08"/>
    <vehicle id="veh44" type="CarD" depart="54000.00" route="route09"/>
    <vehicle id="veh45" type="CarD" depart="54000.00" route="route10"/>
    <vehicle id="veh46" type="CarD" depart="54000.00" route="route11"/>
    <vehicle id="veh47" type="CarD" depart="54000.00" route="route12"/>
    <vehicle id="veh5" type="CarA" depart="54000.00" route="route06"/>
    <vehicle id="veh6" type="CarA" depart="54000.00" route="route07"/>
    <vehicle id="veh7" type="CarA" depart="54000.00" route="route08"/>
    <vehicle id="veh8" type="CarA" depart="54000.00" route="route09"/>
    <vehicle id="veh9" type="CarA" depart="54000.00" route="route10"/>
    <vehicle id="veh48" type="CarA" depart="54030.00" color="red" route="route01"/>
    <vehicle id="veh49" type="CarA" depart="54030.00" route="route02"/>
    <vehicle id="veh50" type="CarA" depart="54030.00" route="route03"/>
    <vehicle id="veh51" type="CarA" depart="54030.00" route="route04"/>
    <vehicle id="veh52" type="CarA" depart="54030.00" route="route05"/>
    <vehicle id="veh53" type="CarA" depart="54030.00" route="route06"/>
    <vehicle id="veh54" type="CarA" depart="54030.00" route="route07"/>
    <vehicle id="veh55" type="CarA" depart="54030.00" route="route08"/>
    <vehicle id="veh56" type="CarA" depart="54030.00" route="route09"/>
    <vehicle id="veh57" type="CarA" depart="54030.00" route="route10"/>
    <vehicle id="veh58" type="CarA" depart="54030.00" route="route11"/>
    <vehicle id="veh59" type="CarA" depart="54030.00" route="route12"/>
    <vehicle id="veh60" type="CarB" depart="54030.00" color="red" route="route01"/>
    <vehicle id="veh61" type="CarB" depart="54030.00" route="route02"/>
    <vehicle id="veh62" type="CarB" depart="54030.00" route="route03"/>
    <vehicle id="veh63" type="CarB" depart="54030.00" route="route04"/>
    <vehicle id="veh64" type="CarB" depart="54030.00" route="route05"/>
    <vehicle id="veh65" type="CarB" depart="54030.00" route="route06"/>
    <vehicle id="veh66" type="CarB" depart="54030.00" route="route07"/>
    <vehicle id="veh67" type="CarB" depart="54030.00" route="route08"/>
    <vehicle id="veh68" type="CarB" depart="54030.00" route="route09"/>
    <vehicle id="veh69" type="CarB" depart="54030.00" route="route10"/>
    <vehicle id="veh70" type="CarB" depart="54030.00" route="route11"/>
    <vehicle id="veh71" type="CarB" depart="54030.00" route="route12"/>
    <vehicle id="veh72" type="CarC" depart="54030.00" color="red" route="route01"/>
    <vehicle id="veh73" type="CarC" depart="54030.00" route="route02"/>
    <vehicle id="veh74" type="CarC" depart="54030.00" route="route03"/>
    <vehicle id="veh75" type="CarC" depart="54030.00" route="route04"/>
    <vehicle id="veh76" type="CarC" depart="54030.00" route="route05"/>
    <vehicle id="veh77" type="CarC" depart="54030.00" route="route06"/>
    <vehicle id="veh78" type="CarC" depart="54030.00" route="route07"/>
    <vehicle id="veh79" type="CarC" depart="54030.00" route="route08"/>
    <vehicle id="veh80" type="CarC" depart="54030.00" route="route09"/>
    <vehicle id="veh81" type="CarC" depart="54030.00" route="route10"/>
    <vehicle id="veh82" type="CarC" depart="54030.00" route="route11"/>
    <vehicle id="veh83" type="CarC" depart="54030.00" route="route12"/>
    <vehicle id="veh84" type="CarD" depart="54030.00" color="red" route="route01"/>
    <vehicle id="veh85" type="CarD" depart="54030.00" route="route02"/>
    <vehicle id="veh86" type="CarD" depart="54030.00" route="route03"/>
    <vehicle id="veh87" type="CarD" depart="54030.00" route="route04"/>
    <vehicle id="veh88" type="CarD" depart="54030.00" route="route05"/>
    <vehicle id="veh89" type="CarD" depart="54030.00" route="route06"/>
    <vehicle id="veh90" type="CarD" depart="54030.00" route="route07"/>
    <vehicle id="veh91" type="CarD" depart="54030.00" route="route08"/>
    <vehicle id="veh92" type="CarD" depart="54030.00" route="route09"/>
    <vehicle id="veh93" type="CarD" depart="54030.00" route="route10"/>
    <vehicle id="veh94" type="CarD" depart="54030.00" route="route11"/>
    <vehicle id="veh95" type="CarD" depart="54030.00" route="route12"/>
    <vehicle id="veh100" type="CarA" depart="54060.00" route="route05"/>
    <vehicle id="veh101" type="CarA" depart="54060.00" route="route06"/>
    <vehicle id="veh102" type="CarA" depart="54060.00" route="route07"/>
    <vehicle id="veh103" type="CarA" depart="54060.00" route="route08"/>
    <vehicle id="veh104" type="CarA" depart="54060.00" route="route09"/>
    <vehicle id="veh105" type="CarA" depart="54060.00" route="route10"/>
    <vehicle id="veh106" type="CarA" depart="54060.00" route="route11"/>
    <vehicle id="veh107" type="CarA" depart="54060.00" route="route12"/>
    <vehicle id="veh108" type="CarB" depart="54060.00" color="red" route="route01"/>
    <vehicle id="veh109" type="CarB" depart="54060.00" route="route02"/>
    <vehicle id="veh110" type="CarB" depart="54060.00" route="route03"/>
    <vehicle id="veh111" type="CarB" depart="54060.00" route="route04"/>
    <vehicle id="veh112" type="CarB" depart="54060.00" route="route05"/>
    <vehicle id="veh113" type="CarB" depart="54060.00" route="route06"/>
    <vehicle id="veh114" type="CarB" depart="54060.00" route="route07"/>
    <vehicle id="veh115" type="CarB" depart="54060.00" route="route08"/>
    <vehicle id="veh116" type="CarB" depart="54060.00" route="route09"/>
    <vehicle id="veh117" type="CarB" depart="54060.00" route="route10"/>
    <vehicle id="veh118" type="CarB" depart="54060.00" route="route11"/>
    <vehicle id="veh119" type="CarB" depart="54060.00" route="route12"/>
    <vehicle id="veh120" type="CarC" depart="54060.00" color="red" route="route01"/>
    <vehicle id="veh121" type="CarC" depart="54060.00" route="route02"/>
    <vehicle id="veh122" type="CarC" depart="54060.00" route="route03"/>
    <vehicle id="veh123" type="CarC" depart="54060.00" route="route04"/>
    <vehicle id="veh124" type="CarC" depart="54060.00" route="route05"/>
    <vehicle id="veh125" type="CarC" depart="54060.00" route="route06"/>
    <vehicle id="veh126" type="CarC" depart="54060.00" route="route07"/>
    <vehicle id="veh127" type="CarC" depart="54060.00" route="route08"/>
    <vehicle id="veh128" type="CarC" depart="54060.00" route="route09"/>
    <vehicle id="veh129" type="CarC" depart="54060.00" route="route10"/>
    <vehicle id="veh130" type="CarC" depart="54060.00" route="route11"/>
    <vehicle id="veh131" type="CarC" depart="54060.00" route="route12"/>
    <vehicle id="veh132" type="CarD" depart="54060.00" color="red" route="route01"/>
    <vehicle id="veh133" type="CarD" depart="54060.00" route="route02"/>
    <vehicle id="veh134" type="CarD" depart="54060.00" route="route03"/>
    <vehicle id="veh135" type="CarD" depart="54060.00" route="route04"/>
    <vehicle id="veh136" type="CarD" depart="54060.00" route="route05"/>
    <vehicle id="veh137" type="CarD" depart="54060.00" route="route06"/>
    <vehicle id="veh138" type="CarD" depart="54060.00" route="route07"/>
    <vehicle id="veh139" type="CarD" depart="54060.00" route="route08"/>
    <vehicle id="veh140" type="CarD" depart="54060.00" route="route09"/>
    <vehicle id="veh141" type="CarD" depart="54060.00" route="route10"/>
    <vehicle id="veh142" type="CarD" depart="54060.00" route="route11"/>
    <vehicle id="veh143" type="CarD" depart="54060.00" route="route12"/>
    <vehicle id="veh96" type="CarA" depart="54060.00" color="red" route="route01"/>
    <vehicle id="veh97" type="CarA" depart="54060.00" route="route02"/>
    <vehicle id="veh98" type="CarA" depart="54060.00" route="route03"/>
    <vehicle id="veh99" type="CarA" depart="54060.00" route="route04"/>
    <vehicle id="veh144" type="CarA" depart="54090.00" color="red" route="route01"/>
    <vehicle id="veh145" type="CarA" depart="54090.00" route="route02"/>
    <vehicle id="veh146" type="CarA" depart="54090.00" route="route03"/>
    <vehicle id="veh147" type="CarA" depart="54090.00" route="route04"/>
    <vehicle id="veh148" type="CarA" depart="54090.00" route="route05"/>
    <vehicle id="veh149" type="CarA" depart="54090.00" route="route06"/>
    <vehicle id="veh150" type="CarA" depart="54090.00" route="route07"/>
    <vehicle id="veh151" type="CarA" depart="54090.00" route="route08"/>
    <vehicle id="veh152" type="CarA" depart="54090.00" route="route09"/>
    <vehicle id="veh153" type="CarA" depart="54090.00" route="route10"/>
    <vehicle id="veh154" type="CarA" depart="54090.00" route="route11"/>
    <vehicle id="veh155" type="CarA" depart="54090.00" route="route12"/>
    <vehicle id="veh156" type="CarB" depart="54090.00" color="red" route="route01"/>
    <vehicle id="veh157" type="CarB" depart="54090.00" route="route02"/>
    <vehicle id="veh158" type="CarB" depart="54090.00" route="route03"/>
    <vehicle id="veh159" type="CarB" depart="54090.00" route="route04"/>
    <vehicle id="veh160" type="CarB" depart="54090.00" route="route05"/>
    <vehicle id="veh161" type="CarB" depart="54090.00" route="route06"/>
    <vehicle id="veh162" type="CarB" depart="54090.00" route="route07"/>
    <vehicle id="veh163" type="CarB" depart="54090.00" route="route08"/>
    <vehicle id="veh164" type="CarB" depart="54090.00" route="route09"/>
    <vehicle id="veh165" type="CarB" depart="54090.00" route="route10"/>
    <vehicle id="veh166" type="CarB" depart="54090.00" route="route11"/>
    <vehicle id="veh167" type="CarB" depart="54090.00" route="route12"/>
    <vehicle id="veh168" type="CarC" depart="54090.00" color="red" route="route01"/>
    <vehicle id="veh169" type="CarC" depart="54090.00" route="route02"/>
    <vehicle id="veh170" type="CarC" depart="54090.00" route="route03"/>
    <vehicle id="veh171" type="CarC" depart="54090.00" route="route04"/>
    <vehicle id="veh172" type="CarC" depart="54090.00" route="route05"/>
    <vehicle id="veh173" type="CarC" depart="54090.00" route="route06"/>
    <vehicle id="veh174" type="CarC" depart="54090.00" route="route07"/>
    <vehicle id="veh175" type="CarC" depart="54090.00" route="route08"/>
    <vehicle id="veh176" type="CarC" depart="54090.00" route="route09"/>
    <vehicle id="veh177" type="CarC" depart="54090.00" route="route10"/>
    <vehicle id="veh178" type="CarC" depart="54090.00" route="route11"/>
    <vehicle id="veh179" type="CarC" depart="54090.00" route="route12"/>
    <vehicle id="veh180" type="CarD" depart="54090.00" color="red" route="route01"/>
    <vehicle id="veh181" type="CarD" depart="54090.00" route="route02"/>
    <vehicle id="veh182" type="CarD" depart="54090.00" route="route03"/>
    <vehicle id="veh183" type="CarD" depart="54090.00" route="route04"/>
    <vehicle id="veh184" type="CarD" depart="54090.00" route="route05"/>
    <vehicle id="veh185" type="CarD" depart="54090.00" route="route06"/>
    <vehicle id="veh186" type="CarD" depart="54090.00" route="route07"/>
    <vehicle id="veh187" type="CarD" depart="54090.00" route="route08"/>
    <vehicle id="veh188" type="CarD" depart="54090.00" route="route09"/>
    <vehicle id="veh189" type="CarD" depart="54090.00" route="route10"/>
    <vehicle id="veh190" type="CarD" depart="54090.00" route="route11"/>
    <vehicle id="veh191" type="CarD" depart="54090.00" route="route12"/>
    <vehicle id="veh192" type="CarA" depart="54120.00" color="red" route="route01"/>
    <vehicle id="veh193" type="CarA" depart="54120.00" route="route02"/>
    <vehicle id="veh194" type="CarA" depart="54120.00" route="route03"/>
    <vehicle id="veh195" type="CarA" depart="54120.00" route="route04"/>
    <vehicle id="veh196" type="CarA" depart="54120.00" route="route05"/>
    <vehicle id="veh197" type="CarA" depart="54120.00" route="route06"/>
    <vehicle id="veh198" type="CarA" depart="54120.00" route="route07"/>
    <vehicle id="veh199" type="CarA" depart="54120.00" route="route08"/>
    <vehicle id="veh200" type="CarA" depart="54120.00" route="route09"/>
    <vehicle id="veh201" type="CarA" depart="54120.00" route="route10"/>
    <vehicle id="veh202" type="CarA" depart="54120.00" route="route11"/>
    <vehicle id="veh203" type="CarA" depart="54120.00" route="route12"/>
    <vehicle id="veh204" type="CarB" depart="54120.00" color="red" route="route01"/>
    <vehicle id="veh205" type="CarB" depart="54120.00" route="route02"/>
    <vehicle id="veh206" type="CarB" depart="54120.00" route="route03"/>
    <vehicle id="veh207" type="CarB" depart="54120.00" route="route04"/>
    <vehicle id="veh208" type="CarB" depart="54120.00" route="route05"/>
    <vehicle id="veh209" type="CarB" depart="54120.00" route="route06"/>
    <vehicle id="veh210" type="CarB" depart="54120.00" route="route07"/>
    <vehicle id="veh211" type="CarB" depart="54120.00" route="route08"/>
    <vehicle id="veh212" type="CarB" depart="54120.00" route="route09"/>
    <vehicle id="veh213" type="CarB" depart="54120.00" route="route10"/>
    <vehicle id="veh214" type="CarB" depart="54120.00" route="route11"/>
    <vehicle id="veh215" type="CarB" depart="54120.00" route="route12"/>
    <vehicle id="veh216" type="CarC" depart="54120.00" color="red" route="route01"/>
    <vehicle id="veh217" type="CarC" depart="54120.00" route="route02"/>
    <vehicle id="veh218" type="CarC" depart="54120.00" route="route03"/>
    <vehicle id="veh219" type="CarC" depart="54120.00" route="route04"/>
    <vehicle id="veh220" type="CarC" depart="54120.00" route="route05"/>
    <vehicle id="veh221" type="CarC" depart="54120.00" route="route06"/>
    <vehicle id="veh222" type="CarC" depart="54120.00" route="route07"/>
    <vehicle id="veh223" type="CarC" depart="54120.00" route="route08"/>
    <vehicle id="veh224" type="CarC" depart="54120.00" route="route09"/>
    <vehicle id="veh225" type="CarC" depart="54120.00" route="route10"/>
    <vehicle id="veh226" type="CarC" depart="54120.00" route="route11"/>
    <vehicle id="veh227" type="CarC" depart="54120.00" route="route12"/>
    <vehicle id="veh228" type="CarD" depart="54120.00" color="red" route="route01"/>
    <vehicle id="veh229" type="CarD" depart="54120.00" route="route02"/>
    <vehicle id="veh230" type="CarD" depart="54120.00" route="route03"/>
    <vehicle id="veh231" type="CarD" depart="54120.00" route="route04"/>
    <vehicle id="veh232" type="CarD" depart="54120.00" route="route05"/>
    <vehicle id="veh233" type="CarD" depart="54120.00" route="route06"/>
    <vehicle id="veh234" type="CarD" depart="54120.00" route="route07"/>
    <vehicle id="veh235" type="CarD" depart="54120.00" route="route08"/>
    <vehicle id="veh236" type="CarD" depart="54120.00" route="route09"/>
    <vehicle id="veh237" type="CarD" depart="54120.00" route="route10"/>
    <vehicle id="veh238" type="CarD" depart="54120.00" route="route11"/>
    <vehicle id="veh239" type="CarD" depart="54120.00" route="route12"/>
    <vehicle id="veh240" type="CarA" depart="54150.00" color="red" route="route01"/>
    <vehicle id="veh241" type="CarA" depart="54150.00" route="route02"/>
    <vehicle id="veh242" type="CarA" depart="54150.00" route="route03"/>
    <vehicle id="veh243" type="CarA" depart="54150.00" route="route04"/>
    <vehicle id="veh244" type="CarA" depart="54150.00" route="route05"/>
    <vehicle id="veh245" type="CarA" depart="54150.00" route="route06"/>
    <vehicle id="veh246" type="CarA" depart="54150.00" route="route07"/>
    <vehicle id="veh247" type="CarA" depart="54150.00" route="route08"/>
    <vehicle id="veh248" type="CarA" depart="54150.00" route="route09"/>
    <vehicle id="veh249" type="CarA" depart="54150.00" route="route10"/>
    <vehicle id="veh250" type="CarA" depart="54150.00" route="route11"/>
    <vehicle id="veh251" type="CarA" depart="54150.00" route="route12"/>
    <vehicle id="veh252" type="CarB" depart="54150.00" color="red" route="route01"/>
    <vehicle id="veh253" type="CarB" depart="54150.00" route="route02"/>
    <vehicle id="veh254" type="CarB" depart="54150.00" route="route03"/>
    <vehicle id="veh255" type="CarB" depart="54150.00" route="route04"/>
    <vehicle id="veh256" type="CarB" depart="54150.00" route="route05"/>
    <vehicle id="veh257" type="CarB" depart="54150.00" route="route06"/>
    <vehicle id="veh258" type="CarB" depart="54150.00" route="route07"/>
    <vehicle id="veh259" type="CarB" depart="54150.00" route="route08"/>
    <vehicle id="veh260" type="CarB" depart="54150.00" route="route09"/>
    <vehicle id="veh261" type="CarB" depart="54150.00" route="route10"/>
    <vehicle id="veh262" type="CarB" depart="54150.00" route="route11"/>
    <vehicle id="veh263" type="CarB" depart="54150.00" route="route12"/>
    <vehicle id="veh264" type="CarC" depart="54150.00" color="red" route="route01"/>
    <vehicle id="veh265" type="CarC" depart="54150.00" route="route02"/>
    <vehicle id="veh266" type="CarC" depart="54150.00" route="route03"/>
    <vehicle id="veh267" type="CarC" depart="54150.00" route="route04"/>
    <vehicle id="veh268" type="CarC" depart="54150.00" route="route05"/>
    <vehicle id="veh269" type="CarC" depart="54150.00" route="route06"/>
    <vehicle id="veh270" type="CarC" depart="54150.00" route="route07"/>
    <vehicle id="veh271" type="CarC" depart="54150.00" route="route08"/>
    <vehicle id="veh272" type="CarC" depart="54150.00" route="route09"/>
    <vehicle id="veh273" type="CarC" depart="54150.00" route="route10"/>
    <vehicle id="veh274" type="CarC" depart="54150.00" route="route11"/>
    <vehicle id="veh275" type="CarC" depart="54150.00" route="route12"/>
    <vehicle id="veh276" type="CarD" depart="54150.00" color="red" route="route01"/>
    <vehicle id="veh277" type="CarD" depart="54150.00" route="route02"/>
    <vehicle id="veh278" type="CarD" depart="54150.00" route="route03"/>
    <vehicle id="veh279" type="CarD" depart="54150.00" route="route04"/>
    <vehicle id="veh280" type="CarD" depart="54150.00" route="route05"/>
    <vehicle id="veh281" type="CarD" depart="54150.00" route="route06"/>
    <vehicle id="veh282" type="CarD" depart="54150.00" route="route07"/>
    <vehicle id="veh283" type="CarD" depart="54150.00" route="route08"/>
    <vehicle id="veh284" type="CarD" depart="54150.00" route="route09"/>
    <vehicle id="veh285" type="CarD" depart="54150.00" route="route10"/>
    <vehicle id="veh286" type="CarD" depart="54150.00" route="route11"/>
    <vehicle id="veh287" type="CarD" depart="54150.00" route="route12"/>
    <vehicle id="veh288" type="CarA" depart="54180.00" color="red" route="route01"/>
    <vehicle id="veh289" type="CarA" depart="54180.00" route="route02"/>
    <vehicle id="veh290" type="CarA" depart="54180.00" route="route03"/>
    <vehicle id="veh291" type="CarA" depart="54180.00" route="route04"/>
    <vehicle id="veh292" type="CarA" depart="54180.00" route="route05"/>
    <vehicle id="veh293" type="CarA" depart="54180.00" route="route06"/>
    <vehicle id="veh294" type="CarA" depart="54180.00" route="route07"/>
    <vehicle id="veh295" type="CarA" depart="54180.00" route="route08"/>
    <vehicle id="veh296" type="CarA" depart="54180.00" route="route09"/>
    <vehicle id="veh297" type="CarA" depart="54180.00" route="route10"/>
    <vehicle id="veh298" type="CarA" depart="54180.00" route="route11"/>
    <vehicle id="veh299" type="CarA" depart="54180.00" route="route12"/>
    <vehicle id="veh300" type="CarB" depart="54180.00" color="red" route="route01"/>
    <vehicle id="veh301" type="CarB" depart="54180.00" route="route02"/>
    <vehicle id="veh302" type="CarB" depart="54180.00" route="route03"/>
    <vehicle id="veh303" type="CarB" depart="54180.00" route="route04"/>
    <vehicle id="veh304" type="CarB" depart="54180.00" route="route05"/>
    <vehicle id="veh305" type="CarB" depart="54180.00" route="route06"/>
    <vehicle id="veh306" type="CarB" depart="54180.00" route="route07"/>
    <vehicle id="veh307" type="CarB" depart="54180.00" route="route08"/>
    <vehicle id="veh308" type="CarB" depart="54180.00" route="route09"/>
    <vehicle id="veh309" type="CarB" depart="54180.00" route="route10"/>
    <vehicle id="veh310" type="CarB" depart="54180.00" route="route11"/>
    <vehicle id="veh311" type="CarB" depart="54180.00" route="route12"/>
    <vehicle id="veh312" type="CarC" depart="54180.00" color="red" route="route01"/>
    <vehicle id="veh313" type="CarC" depart="54180.00" route="route02"/>
    <vehicle id="veh314" type="CarC" depart="54180.00" route="route03"/>
    <vehicle id="veh315" type="CarC" depart="54180.00" route="route04"/>
    <vehicle id="veh316" type="CarC" depart="54180.00" route="route05"/>
    <vehicle id="veh317" type="CarC" depart="54180.00" route="route06"/>
    <vehicle id="veh318" type="CarC" depart="54180.00" route="route07"/>
    <vehicle id="veh319" type="CarC" depart="54180.00" route="route08"/>
    <vehicle id="veh320" type="CarC" depart="54180.00" route="route09"/>
    <vehicle id="veh321" type="CarC" depart="54180.00" route="route10"/>
    <vehicle id="veh322" type="CarC" depart="54180.00" route="route11"/>
    <vehicle id="veh323" type="CarC" depart="54180.00" color="red" route="route12"/>
    <vehicle id="veh324" type="CarD" depart="54180.00" route="route01"/>
    <vehicle id="veh325" type="CarD" depart="54180.00" route="route02"/>
    <vehicle id="veh326" type="CarD" depart="54180.00" route="route03"/>
    <vehicle id="veh327" type="CarD" depart="54180.00" route="route04"/>
    <vehicle id="veh328" type="CarD" depart="54180.00" route="route05"/>
    <vehicle id="veh329" type="CarD" depart="54180.00" route="route06"/>
    <vehicle id="veh330" type="CarD" depart="54180.00" route="route07"/>
    <vehicle id="veh331" type="CarD" depart="54180.00" route="route08"/>
    <vehicle id="veh332" type="CarD" depart="54180.00" route="route09"/>
    <vehicle id="veh333" type="CarD" depart="54180.00" route="route10"/>
    <vehicle id="veh334" type="CarD" depart="54180.00" route="route11"/>
    <vehicle id="veh335" type="CarD" depart="54180.00" route="route12"/>
    <vehicle id="veh336" type="CarA" depart="54210.00" color="red" route="route01"/>
    <vehicle id="veh337" type="CarA" depart="54210.00" route="route02"/>
    <vehicle id="veh338" type="CarA" depart="54210.00" route="route03"/>
    <vehicle id="veh339" type="CarA" depart="54210.00" route="route04"/>
    <vehicle id="veh340" type="CarA" depart="54210.00" route="route05"/>
    <vehicle id="veh341" type="CarA" depart="54210.00" route="route06"/>
    <vehicle id="veh342" type="CarA" depart="54210.00" route="route07"/>
    <vehicle id="veh343" type="CarA" depart="54210.00" route="route08"/>
    <vehicle id="veh344" type="CarA" depart="54210.00" route="route09"/>
    <vehicle id="veh345" type="CarA" depart="54210.00" route="route10"/>
    <vehicle id="veh346" type="CarA" depart="54210.00" route="route11"/>
    <vehicle id="veh347" type="CarA" depart="54210.00" route="route12"/>
    <vehicle id="veh348" type="CarB" depart="54210.00" color="red" route="route01"/>
    <vehicle id="veh349" type="CarB" depart="54210.00" route="route02"/>
    <vehicle id="veh350" type="CarB" depart="54210.00" route="route03"/>
    <vehicle id="veh351" type="CarB" depart="54210.00" route="route04"/>
    <vehicle id="veh352" type="CarB" depart="54210.00" route="route05"/>
    <vehicle id="veh353" type="CarB" depart="54210.00" route="route06"/>
    <vehicle id="veh354" type="CarB" depart="54210.00" route="route07"/>
    <vehicle id="veh355" type="CarB" depart="54210.00" route="route08"/>
    <vehicle id="veh356" type="CarB" depart="54210.00" route="route09"/>
    <vehicle id="veh357" type="CarB" depart="54210.00" route="route10"/>
    <vehicle id="veh358" type="CarB" depart="54210.00" route="route11"/>
    <vehicle id="veh359" type="CarB" depart="54210.00" route="route12"/>
    <vehicle id="veh360" type="CarC" depart="54210.00" color="red" route="route01"/>
    <vehicle id="veh361" type="CarC" depart="54210.00" route="route02"/>
    <vehicle id="veh362" type="CarC" depart="54210.00" route="route03"/>
    <vehicle id="veh363" type="CarC" depart="54210.00" route="route04"/>
    <vehicle id="veh364" type="CarC" depart="54210.00" route="route05"/>
    <vehicle id="veh365" type="CarC" depart="54210.00" route="route06"/>
    <vehicle id="veh366" type="CarC" depart="54210.00" route="route07"/>
    <vehicle id="veh367" type="CarC" depart="54210.00" route="route08"/>
    <vehicle id="veh368" type="CarC" depart="54210.00" route="route09"/>
    <vehicle id="veh369" type="CarC" depart="54210.00" route="route10"/>
    <vehicle id="veh370" type="CarC" depart="54210.00" route="route11"/>
    <vehicle id="veh371" type="CarC" depart="54210.00" route="route12"/>
    <vehicle id="veh372" type="CarD" depart="54210.00" color="red" route="route01"/>
    <vehicle id="veh373" type="CarD" depart="54210.00" route="route02"/>
    <vehicle id="veh374" type="CarD" depart="54210.00" route="route03"/>
    <vehicle id="veh375" type="CarD" depart="54210.00" route="route04"/>
    <vehicle id="veh376" type="CarD" depart="54210.00" route="route05"/>
    <vehicle id="veh377" type="CarD" depart="54210.00" route="route06"/>
    <vehicle id="veh378" type="CarD" depart="54210.00" route="route07"/>
    <vehicle id="veh379" type="CarD" depart="54210.00" route="route08"/>
    <vehicle id="veh380" type="CarD" depart="54210.00" route="route09"/>
    <vehicle id="veh381" type="CarD" depart="54210.00" route="route10"/>
    <vehicle id="veh382" type="CarD" depart="54210.00" route="route11"/>
    <vehicle id="veh383" type="CarD" depart="54210.00" route="route12"/>
    <vehicle id="veh384" type="CarA" depart="54240.00" color="red" route="route01"/>
    <vehicle id="veh385" type="CarA" depart="54240.00" route="route02"/>
    <vehicle id="veh386" type="CarA" depart="54240.00" route="route03"/>